*SIMULATION OVERVIEW FILE
  

*DSSAT Cropping System Model Ver. 4.8.2.000 -release  AUG 23, 2025 16:02:10

*RUN   1        : WW23_G-1                  CSCER048 CIOB2301    1
 MODEL          : CSCER048 - Wheat
 EXPERIMENT     : CIOB2301 WH ROOTS ANATOMY
 DATA PATH      : C:\DSSAT48\Wheat\
 TREATMENT  1   : WW23_G-1                  CSCER048


 CROP           : Wheat            CULTIVAR : ENTRY 1          ECOTYPE :CI0701
 STARTING DATE  : SEP  1 2022
 PLANTING DATE  : NOV 23 2022      PLANTS/m2 :   137.0    ROW SPACING :  20.cm
 WEATHER        : CIOB   2022
 SOIL           : CCENEB2301     TEXTURE : C     -   CIMMYT CENEB 710
 SOIL INIT COND : DEPTH:120cm EXTR. H2O: 82.8mm  NO3:484.0kg/ha  NH4:341.8kg/ha
 WATER BALANCE  : IRRIGATE ON REPORTED DATE(S)
 IRRIGATION     :      525 mm IN     9 APPLICATIONS
 NITROGEN BAL.  : SOIL-N & N-UPTAKE SIMULATION; NO N-FIXATION
 N-FERTILIZER   :      323 kg/ha IN     3 APPLICATIONS
 RESIDUE/MANURE : INITIAL :     0 kg/ha ;    2222 kg/ha IN     1 APPLICATIONS
 ENVIRONM. OPT. : DAYL=    0.00  SRAD=    0.00  TMAX=    0.00  TMIN=    0.00
                  RAIN=    0.00  CO2 =    0.00  DEW =    0.00  WIND=    0.00
 SIMULATION OPT : WATER   :Y  NITROGEN:Y  N-FIX:N  PHOSPH :N  PESTS  :N
                  PHOTO   :C  ET      :R  INFIL:S  HYDROL :R  SOM    :G
                  CO2 418ppm  NSWIT   :1  EVAP :R  SOIL   :2  STEMP  :D
 MANAGEMENT OPT : PLANTING:R  IRRIG   :R  FERT :R  RESIDUE:R  HARVEST:M
                  WEATHER :M  TILLAGE :Y

*SUMMARY OF SOIL AND GENETIC INPUT PARAMETERS

   SOIL LOWER UPPER   SAT  EXTR  INIT   ROOT   BULK     pH    NO3    NH4    ORG
  DEPTH LIMIT LIMIT    SW    SW    SW   DIST   DENS                          C
   cm   cm3/cm3    cm3/cm3    cm3/cm3         g/cm3         ugN/g  ugN/g     %
-------------------------------------------------------------------------------
  0-  5 0.143 0.204 0.268 0.061 0.172   1.00   1.35   8.50  29.00  29.00   1.08
  5- 15 0.143 0.204 0.268 0.061 0.172   1.00   1.35   8.50  29.00  29.00   1.08
 15- 30 0.143 0.204 0.268 0.061 0.172   1.00   1.35   8.50  29.00  29.00   1.08
 30- 45 0.166 0.234 0.274 0.068 0.225   0.41   1.58   8.50  27.00  16.00   0.80
 45- 60 0.166 0.234 0.274 0.068 0.225   0.41   1.58   8.50  27.00  16.00   0.80
 60- 90 0.155 0.227 0.276 0.072 0.207   0.22   1.50   7.90  53.00  33.00   0.87
 90-120 0.188 0.263 0.308 0.075 0.263   0.12   1.38   8.00   0.01   0.01   0.40

TOT-120  19.6  27.8  33.8   8.3  26.0  <--cm   -  kg/ha-->  484.0  341.8 137370
SOIL ALBEDO    : 0.13      EVAPORATION LIMIT : 6.00         MIN. FACTOR  : 1.00
RUNOFF CURVE # :61.00      DRAINAGE RATE     : 0.60         FERT. FACTOR : 1.00

 Wheat            CULTIVAR: 555175-ENTRY 1            ECOTYPE: CI0701
   P1V   P1D    P5    G1    G2    G3 PHINT
   2.0  43.5 585.9  41.2  44.9  7.99  35.1


*SIMULATED CROP AND SOIL STATUS AT MAIN DEVELOPMENT STAGES
  
 RUN NO.      1   ROOTS ANATOMY                                               

 ...... DATE ......  GROWTH STAGE BIOMASS   LEAF       CROP N      STRESS
 YEARDOY DOM MON DAP ............. kg/ha AREA NUMBER  kg/ha   %   H2O    N
 2022327  23 Nov   0 7 Sowing         0  0.00   0.0     0   0.0  0.00  0.00
 2022328  24 Nov   1 8 Germinate      0  0.00   0.0     0   0.0  0.00  0.00
 2022330  26 Nov   3 9 Emergence      0  0.00   0.0     0   0.0  0.00  0.00
 2023025  25 Jan  63 1 Term Spklt   518  0.42  29.7    20   3.9  0.12  0.08
 2023043  12 Feb  81 2 End Veg     1707  1.45  37.7    54   3.2  0.00  0.00
 2023056  25 Feb  94 3 End Ear Gr  3125  1.21  37.7    52   1.7  0.00  0.00
 2023072  13 Mar 110 4 Beg Gr Fil  5462  0.98  37.7    62   1.1  0.00  0.00
 2023102  12 Apr 140 5 End Gr Fil  9219  0.18  37.7   155   1.7  0.00  0.00
 2023102  12 Apr 140 6 Harvest     9219  0.18  37.7   155   1.7  0.00  0.00
  
 BIOMASS = Above-ground dry wt (kg/ha)
 LEAF AREA  = Leaf area index (m2/m2)
 LEAF NUMBER  = Leaf number produced on main axis
 CROP N  = Above-ground N (kg/ha)
 CROP N% = Above-ground N conc (%)
 H2O STRESS = Photosynthesis stress,average (0-1,0=none)
 N STRESS = Photosynthesis stress,average (0-1,0=none)
  

*MAIN GROWTH AND DEVELOPMENT VARIABLES

@     VARIABLE                             SIMULATED     MEASURED
      --------                             ---------     --------
      Emergence (DAP)                            3            7
      Anthesis (DAP)                            97           97
      Maturity (DAP)                           140          140
      Product wt (kg dm/ha;no loss)           6317         6797
      Product unit weight (g dm)             0.043        0.047
      Product number (no/m2)                 14523        14451
      Product number (no/group)               28.3        -99.0
      Product harvest index (ratio)           0.69         0.43
      Maximum leaf area index                  1.4          5.7
      Final leaf number (one axis)            37.7        -99.0
      Final shoot number (#/m2)                513          -99
      Canopy (tops) wt (kg dm/ha)             9219        15757
      Vegetative wt (kg dm/ha)                2903         8960
      Root wt (kg dm/ha)                       483          -99
      Assimilate wt (kg dm/ha)               10321          -99
      Senesced wt (kg dm/ha)                   317          -99
      Reserves wt (kg dm/ha)                    32          -99
      N uptake (kg/ha)                       166.7        -99.0
      N senesced (kg/ha)                       4.5        -99.0
      Above-ground N (kg/ha)                 154.9        -99.0
      Root N (kg/ha)                           8.1        -99.0
      Vegetative N (kg/ha)                    18.8        -99.0
      Product N (kg/ha)                      136.1        139.5
      Product N harvest index (ratio)         0.88       -99.00
      Product N (%)                            2.2          2.1
      Vegetative N (%)                         0.6        -99.0
      Leaf+stem wt,anthesis (kg dm/ha)        3557          -99
      Leaf+stem N,anthesis (kg/ha)            51.5        -99.0
      Leaf N,anthesis (%)                      3.0        -99.0

  Seed N must be added to N uptake to obtain a         
  balance with N in above-ground plus root material    

  Measured data are obtained from the A file,either    
  directly or by calculation from other other variables
  using the expressions given below:                   
                                                       
  Product wt       Harvest wt (HWAH) /                 
                               (Harvest%/100) (HPC)    
  Canopy wt        Grain wt (HWAM)+Vegetative wt (VWAm)
  Vegetative wt    Canopy wt (CWAM) - grain wt (HWAM)  
    = leaf+stem+retained dead material                 
  Product unit wt  Grain yield (HWAM)/Grain # (G#AM)   
  Product #/area   Product#/tiller (H#SM) *            
                                   tiller number (T#AM)
  Product #/group  Product#/area (H#AM) /              
                                tiller number (T#AM)   
  Harvest index    Product wt (HWAM)/Canopy wt.(CWAM)  
                                                       
  The same procedure is followed for nitrogen aspects  


*ENVIRONMENTAL AND STRESS FACTORS

 |-----Development Phase------|-------------Environment--------------|----------------Stress-----------------|
                              |--------Average-------|---Cumulative--|         (0=Min, 1=Max Stress)         |
                         Time  Temp  Temp Solar Photop         Evapo |----Water---|--Nitrogen--|--Phosphorus-|
                         Span   Max   Min   Rad  [day]   Rain  Trans  Photo         Photo         Photo
                         days    °C    °C MJ/m2     hr     mm     mm  synth Growth ' synth Growth  synth Growth
--------------------------------------------------------------------------------------------------------------
 Germinate  - Term Spklt   60  26.3   7.2  14.3  11.35   10.0   71.1  0.125  0.179  0.083  0.083 -99.00 -99.00
 Term Spklt - End Veg      18  25.7   5.6  15.7  11.73    0.1   35.2  0.000  0.000  0.000  0.000 -99.00 -99.00
 End Veg    - End Ear Gr   13  22.7   8.0  14.8  12.06   12.1   33.9  0.000  0.003  0.000  0.000 -99.00 -99.00
 End Ear Gr - Beg Gr Fil   16  27.6   7.0  20.3  12.42    0.1   44.0  0.000  0.003  0.000  0.000 -99.00 -99.00
 Beg Gr Fil - End Gr Fil   30  29.1   8.7  23.2  13.05   65.8   74.6  0.000  0.000  0.000  0.000 -99.00 -99.00
  
 Germinate  - End Gr Fil  137  26.7   7.4  17.2  11.96   88.1  258.7  0.055  0.079  0.036  0.036 -99.00 -99.00
--------------------------------------------------------------------------------------------------------------


*RESOURCE PRODUCTIVITY

 Growing season length: 137 days 

 Precipitation during growth season         88.1 mm[rain]
   Dry Matter Productivity                 10.46 kg[DM]/m3[rain]          =  104.6 kg[DM]/ha per mm[rain]
   Yield Productivity                       7.17 kg[grain yield]/m3[rain] =   71.7 kg[yield]/ha per mm[rain]

 Evapotranspiration during growth season   258.7 mm[ET]
   Dry Matter Productivity                  3.56 kg[DM]/m3[ET]            =   35.6 kg[DM]/ha per mm[ET]
   Yield Productivity                       2.44 kg[grain yield]/m3[ET]   =   24.4 kg[yield]/ha per mm[ET]

 Transpiration during growth season        151.2 mm[EP]
   Dry Matter Productivity                  6.10 kg[DM]/m3[EP]            =   61.0 kg[DM]/ha per mm[EP]
   Yield Productivity                       4.18 kg[grain yield]/m3[EP]   =   41.8 kg[yield]/ha per mm[EP]

 Irrigation during growing season          525.1 mm[irrig]
   Dry Matter Productivity                  1.76 kg[DM]/m3[irrig]         =   17.6 kg[DM]/ha per mm[irrig]
   Yield Productivity                       1.20 kg[grain yield]/m3[irrig]=   12.0 kg[yield]/ha per mm[irrig]

 N applied during growing season           323.0 kg[N applied]/ha
   Dry Matter Productivity                  28.5 kg[DM]/kg[N applied]
   Yield Productivity                       19.6 kg[yield]/kg[N applied]

 N uptake during growing season            166.7 kg[N uptake]/ha
   Dry Matter Productivity                  55.3 kg[DM]/kg[N uptake]
   Yield Productivity                       37.9 kg[yield]/kg[N uptake]

--------------------------------------------------------------------------------------------------------------

          WHEAT YIELD :     6317 kg/ha    [Dry weight] 

**************************************************************************************************************
  

*DSSAT Cropping System Model Ver. 4.8.2.000 -release  AUG 23, 2025 16:02:10

*RUN   2        : WW23_G-2                  CSCER048 CIOB2301    2
 MODEL          : CSCER048 - Wheat
 EXPERIMENT     : CIOB2301 WH ROOTS ANATOMY
 DATA PATH      : C:\DSSAT48\Wheat\
 TREATMENT  2   : WW23_G-2                  CSCER048


 CROP           : Wheat            CULTIVAR : ENTRY 2          ECOTYPE :CI0702
 STARTING DATE  : SEP  1 2022
 PLANTING DATE  : NOV 23 2022      PLANTS/m2 :   137.0    ROW SPACING :  20.cm
 WEATHER        : CIOB   2022
 SOIL           : CCENEB2301     TEXTURE : C     -   CIMMYT CENEB 710
 SOIL INIT COND : DEPTH:120cm EXTR. H2O: 82.8mm  NO3:484.0kg/ha  NH4:341.8kg/ha
 WATER BALANCE  : IRRIGATE ON REPORTED DATE(S)
 IRRIGATION     :      525 mm IN     9 APPLICATIONS
 NITROGEN BAL.  : SOIL-N & N-UPTAKE SIMULATION; NO N-FIXATION
 N-FERTILIZER   :      323 kg/ha IN     3 APPLICATIONS
 RESIDUE/MANURE : INITIAL :     0 kg/ha ;    2222 kg/ha IN     1 APPLICATIONS
 ENVIRONM. OPT. : DAYL=    0.00  SRAD=    0.00  TMAX=    0.00  TMIN=    0.00
                  RAIN=    0.00  CO2 =    0.00  DEW =    0.00  WIND=    0.00
 SIMULATION OPT : WATER   :Y  NITROGEN:Y  N-FIX:N  PHOSPH :N  PESTS  :N
                  PHOTO   :C  ET      :R  INFIL:S  HYDROL :R  SOM    :G
                  CO2 418ppm  NSWIT   :1  EVAP :R  SOIL   :2  STEMP  :D
 MANAGEMENT OPT : PLANTING:R  IRRIG   :R  FERT :R  RESIDUE:R  HARVEST:M
                  WEATHER :M  TILLAGE :Y

*SUMMARY OF SOIL AND GENETIC INPUT PARAMETERS

   SOIL LOWER UPPER   SAT  EXTR  INIT   ROOT   BULK     pH    NO3    NH4    ORG
  DEPTH LIMIT LIMIT    SW    SW    SW   DIST   DENS                          C
   cm   cm3/cm3    cm3/cm3    cm3/cm3         g/cm3         ugN/g  ugN/g     %
-------------------------------------------------------------------------------
  0-  5 0.143 0.204 0.268 0.061 0.172   1.00   1.35   8.50  29.00  29.00   1.08
  5- 15 0.143 0.204 0.268 0.061 0.172   1.00   1.35   8.50  29.00  29.00   1.08
 15- 30 0.143 0.204 0.268 0.061 0.172   1.00   1.35   8.50  29.00  29.00   1.08
 30- 45 0.166 0.234 0.274 0.068 0.225   0.41   1.58   8.50  27.00  16.00   0.80
 45- 60 0.166 0.234 0.274 0.068 0.225   0.41   1.58   8.50  27.00  16.00   0.80
 60- 90 0.155 0.227 0.276 0.072 0.207   0.22   1.50   7.90  53.00  33.00   0.87
 90-120 0.188 0.263 0.308 0.075 0.263   0.12   1.38   8.00   0.01   0.01   0.40

TOT-120  19.6  27.8  33.8   8.3  26.0  <--cm   -  kg/ha-->  484.0  341.8 137370
SOIL ALBEDO    : 0.13      EVAPORATION LIMIT : 6.00         MIN. FACTOR  : 1.00
RUNOFF CURVE # :61.00      DRAINAGE RATE     : 0.60         FERT. FACTOR : 1.00

 Wheat            CULTIVAR: 457793-ENTRY 2            ECOTYPE: CI0702
   P1V   P1D    P5    G1    G2    G3 PHINT
   2.0  42.7 575.0  23.7  42.3  7.21  95.6


*SIMULATED CROP AND SOIL STATUS AT MAIN DEVELOPMENT STAGES
  
 RUN NO.      2   ROOTS ANATOMY                                               

 ...... DATE ......  GROWTH STAGE BIOMASS   LEAF       CROP N      STRESS
 YEARDOY DOM MON DAP ............. kg/ha AREA NUMBER  kg/ha   %   H2O    N
 2022327  23 Nov   0 7 Sowing         0  0.00   0.0     0   0.0  0.00  0.00
 2022328  24 Nov   1 8 Germinate      0  0.00   0.0     0   0.0  0.00  0.00
 2022330  26 Nov   3 9 Emergence      0  0.00   0.0     0   0.0  0.00  0.00
 2023024  24 Jan  62 1 Term Spklt  1838  3.03  11.4    86   4.7  0.15  0.08
 2023042  11 Feb  80 2 End Veg     3993  5.84  14.3   135   3.4  0.01  0.00
 2023055  24 Feb  93 3 End Ear Gr  6251  4.98  14.3   132   2.1  0.00  0.00
 2023071  12 Mar 109 4 Beg Gr Fil  9814  4.01  14.3   130   1.3  0.07  0.00
 2023101  11 Apr 139 5 End Gr Fil 17231  1.87  14.3   196   1.1  0.09  0.00
 2023101  11 Apr 139 6 Harvest    17231  1.87  14.3   196   1.1  0.61  0.00
  

*MAIN GROWTH AND DEVELOPMENT VARIABLES

@     VARIABLE                             SIMULATED     MEASURED
      --------                             ---------     --------
      Emergence (DAP)                            3            7
      Anthesis (DAP)                            96           96
      Maturity (DAP)                           139          139
      Product wt (kg dm/ha;no loss)           6943         6933
      Product unit weight (g dm)             0.042        0.042
      Product number (no/m2)                 16413        16392
      Product number (no/group)               23.5        -99.0
      Product harvest index (ratio)           0.40         0.41
      Maximum leaf area index                  5.8          6.1
      Final leaf number (one axis)            14.3        -99.0
      Final shoot number (#/m2)                699          -99
      Canopy (tops) wt (kg dm/ha)            17231        16796
      Vegetative wt (kg dm/ha)               10288         9863
      Root wt (kg dm/ha)                       960          -99
      Assimilate wt (kg dm/ha)               19138          -99
      Senesced wt (kg dm/ha)                   309          -99
      Reserves wt (kg dm/ha)                  4585          -99
      N uptake (kg/ha)                       215.3        -99.0
      N senesced (kg/ha)                       4.3        -99.0
      Above-ground N (kg/ha)                 195.7        -99.0
      Root N (kg/ha)                          16.2        -99.0
      Vegetative N (kg/ha)                    46.5        -99.0
      Product N (kg/ha)                      149.1        142.3
      Product N harvest index (ratio)         0.76       -99.00
      Product N (%)                            2.1          2.1
      Vegetative N (%)                         0.5        -99.0
      Leaf+stem wt,anthesis (kg dm/ha)        6898          -99
      Leaf+stem N,anthesis (kg/ha)           131.0        -99.0
      Leaf N,anthesis (%)                      3.0        -99.0

*ENVIRONMENTAL AND STRESS FACTORS

 |-----Development Phase------|-------------Environment--------------|----------------Stress-----------------|
                              |--------Average-------|---Cumulative--|         (0=Min, 1=Max Stress)         |
                         Time  Temp  Temp Solar Photop         Evapo |----Water---|--Nitrogen--|--Phosphorus-|
                         Span   Max   Min   Rad  [day]   Rain  Trans  Photo         Photo         Photo
                         days    °C    °C MJ/m2     hr     mm     mm  synth Growth ' synth Growth  synth Growth
--------------------------------------------------------------------------------------------------------------
 Germinate  - Term Spklt   59  26.3   7.3  14.2  11.34   10.0   90.9  0.146  0.239  0.082  0.082 -99.00 -99.00
 Term Spklt - End Veg      18  25.7   5.4  15.8  11.71    0.1   55.2  0.013  0.036  0.000  0.000 -99.00 -99.00
 End Veg    - End Ear Gr   13  22.9   7.9  15.1  12.03   12.1   37.8  0.000  0.000  0.000  0.000 -99.00 -99.00
 End Ear Gr - Beg Gr Fil   16  27.1   6.7  19.6  12.39    0.1   59.3  0.075  0.121  0.000  0.000 -99.00 -99.00
 Beg Gr Fil - End Gr Fil   30  29.1   8.8  23.1  13.02   65.8  126.3  0.087  0.116  0.000  0.000 -99.00 -99.00
  
 Germinate  - End Gr Fil  136  26.6   7.3  17.1  11.95   88.1  369.4  0.093  0.148  0.036  0.036 -99.00 -99.00
--------------------------------------------------------------------------------------------------------------


*RESOURCE PRODUCTIVITY

 Growing season length: 136 days 

 Precipitation during growth season         88.1 mm[rain]
   Dry Matter Productivity                 19.56 kg[DM]/m3[rain]          =  195.6 kg[DM]/ha per mm[rain]
   Yield Productivity                       7.88 kg[grain yield]/m3[rain] =   78.8 kg[yield]/ha per mm[rain]

 Evapotranspiration during growth season   369.4 mm[ET]
   Dry Matter Productivity                  4.66 kg[DM]/m3[ET]            =   46.6 kg[DM]/ha per mm[ET]
   Yield Productivity                       1.88 kg[grain yield]/m3[ET]   =   18.8 kg[yield]/ha per mm[ET]

 Transpiration during growth season        294.5 mm[EP]
   Dry Matter Productivity                  5.85 kg[DM]/m3[EP]            =   58.5 kg[DM]/ha per mm[EP]
   Yield Productivity                       2.36 kg[grain yield]/m3[EP]   =   23.6 kg[yield]/ha per mm[EP]

 Irrigation during growing season          525.1 mm[irrig]
   Dry Matter Productivity                  3.28 kg[DM]/m3[irrig]         =   32.8 kg[DM]/ha per mm[irrig]
   Yield Productivity                       1.32 kg[grain yield]/m3[irrig]=   13.2 kg[yield]/ha per mm[irrig]

 N applied during growing season           323.0 kg[N applied]/ha
   Dry Matter Productivity                  53.3 kg[DM]/kg[N applied]
   Yield Productivity                       21.5 kg[yield]/kg[N applied]

 N uptake during growing season            215.3 kg[N uptake]/ha
   Dry Matter Productivity                  80.0 kg[DM]/kg[N uptake]
   Yield Productivity                       32.2 kg[yield]/kg[N uptake]

--------------------------------------------------------------------------------------------------------------

          WHEAT YIELD :     6943 kg/ha    [Dry weight] 

**************************************************************************************************************
  

*DSSAT Cropping System Model Ver. 4.8.2.000 -release  AUG 23, 2025 16:02:10

*RUN   3        : WW23_G-3                  CSCER048 CIOB2301    3
 MODEL          : CSCER048 - Wheat
 EXPERIMENT     : CIOB2301 WH ROOTS ANATOMY
 DATA PATH      : C:\DSSAT48\Wheat\
 TREATMENT  3   : WW23_G-3                  CSCER048


 CROP           : Wheat            CULTIVAR : ENTRY 3          ECOTYPE :CI0701
 STARTING DATE  : SEP  1 2022
 PLANTING DATE  : NOV 23 2022      PLANTS/m2 :   137.0    ROW SPACING :  20.cm
 WEATHER        : CIOB   2022
 SOIL           : CCENEB2301     TEXTURE : C     -   CIMMYT CENEB 710
 SOIL INIT COND : DEPTH:120cm EXTR. H2O: 82.8mm  NO3:484.0kg/ha  NH4:341.8kg/ha
 WATER BALANCE  : IRRIGATE ON REPORTED DATE(S)
 IRRIGATION     :      525 mm IN     9 APPLICATIONS
 NITROGEN BAL.  : SOIL-N & N-UPTAKE SIMULATION; NO N-FIXATION
 N-FERTILIZER   :      323 kg/ha IN     3 APPLICATIONS
 RESIDUE/MANURE : INITIAL :     0 kg/ha ;    2222 kg/ha IN     1 APPLICATIONS
 ENVIRONM. OPT. : DAYL=    0.00  SRAD=    0.00  TMAX=    0.00  TMIN=    0.00
                  RAIN=    0.00  CO2 =    0.00  DEW =    0.00  WIND=    0.00
 SIMULATION OPT : WATER   :Y  NITROGEN:Y  N-FIX:N  PHOSPH :N  PESTS  :N
                  PHOTO   :C  ET      :R  INFIL:S  HYDROL :R  SOM    :G
                  CO2 418ppm  NSWIT   :1  EVAP :R  SOIL   :2  STEMP  :D
 MANAGEMENT OPT : PLANTING:R  IRRIG   :R  FERT :R  RESIDUE:R  HARVEST:M
                  WEATHER :M  TILLAGE :Y

*SUMMARY OF SOIL AND GENETIC INPUT PARAMETERS

   SOIL LOWER UPPER   SAT  EXTR  INIT   ROOT   BULK     pH    NO3    NH4    ORG
  DEPTH LIMIT LIMIT    SW    SW    SW   DIST   DENS                          C
   cm   cm3/cm3    cm3/cm3    cm3/cm3         g/cm3         ugN/g  ugN/g     %
-------------------------------------------------------------------------------
  0-  5 0.143 0.204 0.268 0.061 0.172   1.00   1.35   8.50  29.00  29.00   1.08
  5- 15 0.143 0.204 0.268 0.061 0.172   1.00   1.35   8.50  29.00  29.00   1.08
 15- 30 0.143 0.204 0.268 0.061 0.172   1.00   1.35   8.50  29.00  29.00   1.08
 30- 45 0.166 0.234 0.274 0.068 0.225   0.41   1.58   8.50  27.00  16.00   0.80
 45- 60 0.166 0.234 0.274 0.068 0.225   0.41   1.58   8.50  27.00  16.00   0.80
 60- 90 0.155 0.227 0.276 0.072 0.207   0.22   1.50   7.90  53.00  33.00   0.87
 90-120 0.188 0.263 0.308 0.075 0.263   0.12   1.38   8.00   0.01   0.01   0.40

TOT-120  19.6  27.8  33.8   8.3  26.0  <--cm   -  kg/ha-->  484.0  341.8 137370
SOIL ALBEDO    : 0.13      EVAPORATION LIMIT : 6.00         MIN. FACTOR  : 1.00
RUNOFF CURVE # :61.00      DRAINAGE RATE     : 0.60         FERT. FACTOR : 1.00

 Wheat            CULTIVAR: 518062-ENTRY 3            ECOTYPE: CI0701
   P1V   P1D    P5    G1    G2    G3 PHINT
   2.0  37.4 581.6  24.6  48.2  8.00  80.6


*SIMULATED CROP AND SOIL STATUS AT MAIN DEVELOPMENT STAGES
  
 RUN NO.      3   ROOTS ANATOMY                                               

 ...... DATE ......  GROWTH STAGE BIOMASS   LEAF       CROP N      STRESS
 YEARDOY DOM MON DAP ............. kg/ha AREA NUMBER  kg/ha   %   H2O    N
 2022327  23 Nov   0 7 Sowing         0  0.00   0.0     0   0.0  0.00  0.00
 2022328  24 Nov   1 8 Germinate      0  0.00   0.0     0   0.0  0.00  0.00
 2022330  26 Nov   3 9 Emergence      0  0.00   0.0     0   0.0  0.00  0.00
 2023022  22 Jan  60 1 Term Spklt  1284  2.01  13.0    58   4.5  0.28  0.11
 2023041  10 Feb  79 2 End Veg     3532  4.55  16.6   113   3.2  0.06  0.00
 2023054  23 Feb  92 3 End Ear Gr  5616  3.81  16.6   110   2.0  0.01  0.00
 2023070  11 Mar 108 4 Beg Gr Fil  8774  2.95  16.6   109   1.2  0.11  0.00
 2023100  10 Apr 138 5 End Gr Fil 15740  0.76  16.6   186   1.2  0.02  0.00
 2023100  10 Apr 138 6 Harvest    15740  0.76  16.6   186   1.2  0.22  0.00
  

*MAIN GROWTH AND DEVELOPMENT VARIABLES

@     VARIABLE                             SIMULATED     MEASURED
      --------                             ---------     --------
      Emergence (DAP)                            3            7
      Anthesis (DAP)                            95           95
      Maturity (DAP)                           138          138
      Product wt (kg dm/ha;no loss)           7105         7260
      Product unit weight (g dm)             0.048        0.049
      Product number (no/m2)                 14741        14914
      Product number (no/group)               29.0        -99.0
      Product harvest index (ratio)           0.45         0.43
      Maximum leaf area index                  4.6          5.6
      Final leaf number (one axis)            16.6        -99.0
      Final shoot number (#/m2)                508          -99
      Canopy (tops) wt (kg dm/ha)            15740        16824
      Vegetative wt (kg dm/ha)                8635         9564
      Root wt (kg dm/ha)                       851          -99
      Assimilate wt (kg dm/ha)               17448          -99
      Senesced wt (kg dm/ha)                   295          -99
      Reserves wt (kg dm/ha)                  3942          -99
      N uptake (kg/ha)                       203.8        -99.0
      N senesced (kg/ha)                       4.1        -99.0
      Above-ground N (kg/ha)                 186.3        -99.0
      Root N (kg/ha)                          14.3        -99.0
      Vegetative N (kg/ha)                    35.0        -99.0
      Product N (kg/ha)                      151.3        139.3
      Product N harvest index (ratio)         0.81       -99.00
      Product N (%)                            2.1          1.9
      Vegetative N (%)                         0.4        -99.0
      Leaf+stem wt,anthesis (kg dm/ha)        6152          -99
      Leaf+stem N,anthesis (kg/ha)           109.8        -99.0
      Leaf N,anthesis (%)                      3.0        -99.0

*ENVIRONMENTAL AND STRESS FACTORS

 |-----Development Phase------|-------------Environment--------------|----------------Stress-----------------|
                              |--------Average-------|---Cumulative--|         (0=Min, 1=Max Stress)         |
                         Time  Temp  Temp Solar Photop         Evapo |----Water---|--Nitrogen--|--Phosphorus-|
                         Span   Max   Min   Rad  [day]   Rain  Trans  Photo         Photo         Photo
                         days    °C    °C MJ/m2     hr     mm     mm  synth Growth ' synth Growth  synth Growth
--------------------------------------------------------------------------------------------------------------
 Germinate  - Term Spklt   57  26.5   7.4  14.1  11.34   10.0   77.6  0.276  0.381  0.114  0.114 -99.00 -99.00
 Term Spklt - End Veg      19  25.5   5.2  16.4  11.68    0.1   57.8  0.058  0.109  0.000  0.000 -99.00 -99.00
 End Veg    - End Ear Gr   13  22.8   8.0  14.5  12.01   12.1   36.3  0.006  0.046  0.000  0.000 -99.00 -99.00
 End Ear Gr - Beg Gr Fil   16  26.3   6.3  19.1  12.37    0.1   55.0  0.110  0.161  0.000  0.000 -99.00 -99.00
 Beg Gr Fil - End Gr Fil   30  29.2   8.8  23.0  13.00   65.8  124.9  0.020  0.047  0.000  0.000 -99.00 -99.00
  
 Germinate  - End Gr Fil  135  26.6   7.3  17.1  11.94   88.1  351.6  0.143  0.210  0.048  0.048 -99.00 -99.00
--------------------------------------------------------------------------------------------------------------


*RESOURCE PRODUCTIVITY

 Growing season length: 135 days 

 Precipitation during growth season         88.1 mm[rain]
   Dry Matter Productivity                 17.87 kg[DM]/m3[rain]          =  178.7 kg[DM]/ha per mm[rain]
   Yield Productivity                       8.06 kg[grain yield]/m3[rain] =   80.6 kg[yield]/ha per mm[rain]

 Evapotranspiration during growth season   351.6 mm[ET]
   Dry Matter Productivity                  4.48 kg[DM]/m3[ET]            =   44.8 kg[DM]/ha per mm[ET]
   Yield Productivity                       2.02 kg[grain yield]/m3[ET]   =   20.2 kg[yield]/ha per mm[ET]

 Transpiration during growth season        269.0 mm[EP]
   Dry Matter Productivity                  5.85 kg[DM]/m3[EP]            =   58.5 kg[DM]/ha per mm[EP]
   Yield Productivity                       2.64 kg[grain yield]/m3[EP]   =   26.4 kg[yield]/ha per mm[EP]

 Irrigation during growing season          525.1 mm[irrig]
   Dry Matter Productivity                  3.00 kg[DM]/m3[irrig]         =   30.0 kg[DM]/ha per mm[irrig]
   Yield Productivity                       1.35 kg[grain yield]/m3[irrig]=   13.5 kg[yield]/ha per mm[irrig]

 N applied during growing season           323.0 kg[N applied]/ha
   Dry Matter Productivity                  48.7 kg[DM]/kg[N applied]
   Yield Productivity                       22.0 kg[yield]/kg[N applied]

 N uptake during growing season            203.8 kg[N uptake]/ha
   Dry Matter Productivity                  77.2 kg[DM]/kg[N uptake]
   Yield Productivity                       34.9 kg[yield]/kg[N uptake]

--------------------------------------------------------------------------------------------------------------

          WHEAT YIELD :     7105 kg/ha    [Dry weight] 

**************************************************************************************************************
  

*DSSAT Cropping System Model Ver. 4.8.2.000 -release  AUG 23, 2025 16:02:10

*RUN   4        : WW23_G-4                  CSCER048 CIOB2301    4
 MODEL          : CSCER048 - Wheat
 EXPERIMENT     : CIOB2301 WH ROOTS ANATOMY
 DATA PATH      : C:\DSSAT48\Wheat\
 TREATMENT  4   : WW23_G-4                  CSCER048


 CROP           : Wheat            CULTIVAR : ENTRY 4          ECOTYPE :CI0701
 STARTING DATE  : SEP  1 2022
 PLANTING DATE  : NOV 23 2022      PLANTS/m2 :   137.0    ROW SPACING :  20.cm
 WEATHER        : CIOB   2022
 SOIL           : CCENEB2301     TEXTURE : C     -   CIMMYT CENEB 710
 SOIL INIT COND : DEPTH:120cm EXTR. H2O: 82.8mm  NO3:484.0kg/ha  NH4:341.8kg/ha
 WATER BALANCE  : IRRIGATE ON REPORTED DATE(S)
 IRRIGATION     :      525 mm IN     9 APPLICATIONS
 NITROGEN BAL.  : SOIL-N & N-UPTAKE SIMULATION; NO N-FIXATION
 N-FERTILIZER   :      323 kg/ha IN     3 APPLICATIONS
 RESIDUE/MANURE : INITIAL :     0 kg/ha ;    2222 kg/ha IN     1 APPLICATIONS
 ENVIRONM. OPT. : DAYL=    0.00  SRAD=    0.00  TMAX=    0.00  TMIN=    0.00
                  RAIN=    0.00  CO2 =    0.00  DEW =    0.00  WIND=    0.00
 SIMULATION OPT : WATER   :Y  NITROGEN:Y  N-FIX:N  PHOSPH :N  PESTS  :N
                  PHOTO   :C  ET      :R  INFIL:S  HYDROL :R  SOM    :G
                  CO2 418ppm  NSWIT   :1  EVAP :R  SOIL   :2  STEMP  :D
 MANAGEMENT OPT : PLANTING:R  IRRIG   :R  FERT :R  RESIDUE:R  HARVEST:M
                  WEATHER :M  TILLAGE :Y

*SUMMARY OF SOIL AND GENETIC INPUT PARAMETERS

   SOIL LOWER UPPER   SAT  EXTR  INIT   ROOT   BULK     pH    NO3    NH4    ORG
  DEPTH LIMIT LIMIT    SW    SW    SW   DIST   DENS                          C
   cm   cm3/cm3    cm3/cm3    cm3/cm3         g/cm3         ugN/g  ugN/g     %
-------------------------------------------------------------------------------
  0-  5 0.143 0.204 0.268 0.061 0.172   1.00   1.35   8.50  29.00  29.00   1.08
  5- 15 0.143 0.204 0.268 0.061 0.172   1.00   1.35   8.50  29.00  29.00   1.08
 15- 30 0.143 0.204 0.268 0.061 0.172   1.00   1.35   8.50  29.00  29.00   1.08
 30- 45 0.166 0.234 0.274 0.068 0.225   0.41   1.58   8.50  27.00  16.00   0.80
 45- 60 0.166 0.234 0.274 0.068 0.225   0.41   1.58   8.50  27.00  16.00   0.80
 60- 90 0.155 0.227 0.276 0.072 0.207   0.22   1.50   7.90  53.00  33.00   0.87
 90-120 0.188 0.263 0.308 0.075 0.263   0.12   1.38   8.00   0.01   0.01   0.40

TOT-120  19.6  27.8  33.8   8.3  26.0  <--cm   -  kg/ha-->  484.0  341.8 137370
SOIL ALBEDO    : 0.13      EVAPORATION LIMIT : 6.00         MIN. FACTOR  : 1.00
RUNOFF CURVE # :61.00      DRAINAGE RATE     : 0.60         FERT. FACTOR : 1.00

 Wheat            CULTIVAR: 617502-ENTRY 4            ECOTYPE: CI0701
   P1V   P1D    P5    G1    G2    G3 PHINT
   2.0  43.8 591.3  39.0  47.7  7.94  36.1


*SIMULATED CROP AND SOIL STATUS AT MAIN DEVELOPMENT STAGES
  
 RUN NO.      4   ROOTS ANATOMY                                               

 ...... DATE ......  GROWTH STAGE BIOMASS   LEAF       CROP N      STRESS
 YEARDOY DOM MON DAP ............. kg/ha AREA NUMBER  kg/ha   %   H2O    N
 2022327  23 Nov   0 7 Sowing         0  0.00   0.0     0   0.0  0.00  0.00
 2022328  24 Nov   1 8 Germinate      0  0.00   0.0     0   0.0  0.00  0.00
 2022330  26 Nov   3 9 Emergence      0  0.00   0.0     0   0.0  0.00  0.00
 2023025  25 Jan  63 1 Term Spklt   575  0.49  28.9    23   4.0  0.13  0.09
 2023043  12 Feb  81 2 End Veg     1853  1.59  36.7    59   3.2  0.00  0.00
 2023056  25 Feb  94 3 End Ear Gr  3344  1.32  36.7    57   1.7  0.00  0.00
 2023072  13 Mar 110 4 Beg Gr Fil  5818  1.07  36.7    66   1.1  0.00  0.00
 2023103  13 Apr 141 5 End Gr Fil  9986  0.20  36.7   169   1.7  0.00  0.00
 2023103  13 Apr 141 6 Harvest     9986  0.20  36.7   169   1.7  0.00  0.00
  

*MAIN GROWTH AND DEVELOPMENT VARIABLES

@     VARIABLE                             SIMULATED     MEASURED
      --------                             ---------     --------
      Emergence (DAP)                            3            7
      Anthesis (DAP)                            97           97
      Maturity (DAP)                           141          141
      Product wt (kg dm/ha;no loss)           6894         7183
      Product unit weight (g dm)             0.047        0.049
      Product number (no/m2)                 14679        14585
      Product number (no/group)               28.9        -99.0
      Product harvest index (ratio)           0.69         0.46
      Maximum leaf area index                  1.6          5.5
      Final leaf number (one axis)            36.7        -99.0
      Final shoot number (#/m2)                508          -99
      Canopy (tops) wt (kg dm/ha)             9986        15767
      Vegetative wt (kg dm/ha)                3091         8584
      Root wt (kg dm/ha)                       518          -99
      Assimilate wt (kg dm/ha)               11156          -99
      Senesced wt (kg dm/ha)                   326          -99
      Reserves wt (kg dm/ha)                    33          -99
      N uptake (kg/ha)                       180.9        -99.0
      N senesced (kg/ha)                       4.6        -99.0
      Above-ground N (kg/ha)                 168.5        -99.0
      Root N (kg/ha)                           8.6        -99.0
      Vegetative N (kg/ha)                    20.1        -99.0
      Product N (kg/ha)                      148.5        153.2
      Product N harvest index (ratio)         0.88       -99.00
      Product N (%)                            2.2          2.1
      Vegetative N (%)                         0.6        -99.0
      Leaf+stem wt,anthesis (kg dm/ha)        3801          -99
      Leaf+stem N,anthesis (kg/ha)            56.4        -99.0
      Leaf N,anthesis (%)                      3.0        -99.0

*ENVIRONMENTAL AND STRESS FACTORS

 |-----Development Phase------|-------------Environment--------------|----------------Stress-----------------|
                              |--------Average-------|---Cumulative--|         (0=Min, 1=Max Stress)         |
                         Time  Temp  Temp Solar Photop         Evapo |----Water---|--Nitrogen--|--Phosphorus-|
                         Span   Max   Min   Rad  [day]   Rain  Trans  Photo         Photo         Photo
                         days    °C    °C MJ/m2     hr     mm     mm  synth Growth ' synth Growth  synth Growth
--------------------------------------------------------------------------------------------------------------
 Germinate  - Term Spklt   60  26.3   7.2  14.3  11.35   10.0   72.2  0.128  0.186  0.085  0.085 -99.00 -99.00
 Term Spklt - End Veg      18  25.7   5.6  15.7  11.73    0.1   37.0  0.000  0.000  0.000  0.000 -99.00 -99.00
 End Veg    - End Ear Gr   13  22.7   8.0  14.8  12.06   12.1   34.3  0.000  0.007  0.000  0.000 -99.00 -99.00
 End Ear Gr - Beg Gr Fil   16  27.6   7.0  20.3  12.42    0.1   46.3  0.000  0.016  0.000  0.000 -99.00 -99.00
 Beg Gr Fil - End Gr Fil   31  29.1   8.8  23.2  13.07   65.8   80.5  0.000  0.000  0.000  0.000 -99.00 -99.00
  
 Germinate  - End Gr Fil  138  26.7   7.4  17.2  11.97   88.1  270.3  0.056  0.083  0.037  0.037 -99.00 -99.00
--------------------------------------------------------------------------------------------------------------


*RESOURCE PRODUCTIVITY

 Growing season length: 138 days 

 Precipitation during growth season         88.1 mm[rain]
   Dry Matter Productivity                 11.33 kg[DM]/m3[rain]          =  113.3 kg[DM]/ha per mm[rain]
   Yield Productivity                       7.83 kg[grain yield]/m3[rain] =   78.3 kg[yield]/ha per mm[rain]

 Evapotranspiration during growth season   270.3 mm[ET]
   Dry Matter Productivity                  3.69 kg[DM]/m3[ET]            =   36.9 kg[DM]/ha per mm[ET]
   Yield Productivity                       2.55 kg[grain yield]/m3[ET]   =   25.5 kg[yield]/ha per mm[ET]

 Transpiration during growth season        163.7 mm[EP]
   Dry Matter Productivity                  6.10 kg[DM]/m3[EP]            =   61.0 kg[DM]/ha per mm[EP]
   Yield Productivity                       4.21 kg[grain yield]/m3[EP]   =   42.1 kg[yield]/ha per mm[EP]

 Irrigation during growing season          525.1 mm[irrig]
   Dry Matter Productivity                  1.90 kg[DM]/m3[irrig]         =   19.0 kg[DM]/ha per mm[irrig]
   Yield Productivity                       1.31 kg[grain yield]/m3[irrig]=   13.1 kg[yield]/ha per mm[irrig]

 N applied during growing season           323.0 kg[N applied]/ha
   Dry Matter Productivity                  30.9 kg[DM]/kg[N applied]
   Yield Productivity                       21.3 kg[yield]/kg[N applied]

 N uptake during growing season            180.9 kg[N uptake]/ha
   Dry Matter Productivity                  55.2 kg[DM]/kg[N uptake]
   Yield Productivity                       38.1 kg[yield]/kg[N uptake]

--------------------------------------------------------------------------------------------------------------

          WHEAT YIELD :     6894 kg/ha    [Dry weight] 

**************************************************************************************************************
  

*DSSAT Cropping System Model Ver. 4.8.2.000 -release  AUG 23, 2025 16:02:10

*RUN   5        : WW23_G-5                  CSCER048 CIOB2301    5
 MODEL          : CSCER048 - Wheat
 EXPERIMENT     : CIOB2301 WH ROOTS ANATOMY
 DATA PATH      : C:\DSSAT48\Wheat\
 TREATMENT  5   : WW23_G-5                  CSCER048


 CROP           : Wheat            CULTIVAR : ENTRY 5          ECOTYPE :CI0700
 STARTING DATE  : SEP  1 2022
 PLANTING DATE  : NOV 23 2022      PLANTS/m2 :   137.0    ROW SPACING :  20.cm
 WEATHER        : CIOB   2022
 SOIL           : CCENEB2301     TEXTURE : C     -   CIMMYT CENEB 710
 SOIL INIT COND : DEPTH:120cm EXTR. H2O: 82.8mm  NO3:484.0kg/ha  NH4:341.8kg/ha
 WATER BALANCE  : IRRIGATE ON REPORTED DATE(S)
 IRRIGATION     :      525 mm IN     9 APPLICATIONS
 NITROGEN BAL.  : SOIL-N & N-UPTAKE SIMULATION; NO N-FIXATION
 N-FERTILIZER   :      323 kg/ha IN     3 APPLICATIONS
 RESIDUE/MANURE : INITIAL :     0 kg/ha ;    2222 kg/ha IN     1 APPLICATIONS
 ENVIRONM. OPT. : DAYL=    0.00  SRAD=    0.00  TMAX=    0.00  TMIN=    0.00
                  RAIN=    0.00  CO2 =    0.00  DEW =    0.00  WIND=    0.00
 SIMULATION OPT : WATER   :Y  NITROGEN:Y  N-FIX:N  PHOSPH :N  PESTS  :N
                  PHOTO   :C  ET      :R  INFIL:S  HYDROL :R  SOM    :G
                  CO2 418ppm  NSWIT   :1  EVAP :R  SOIL   :2  STEMP  :D
 MANAGEMENT OPT : PLANTING:R  IRRIG   :R  FERT :R  RESIDUE:R  HARVEST:M
                  WEATHER :M  TILLAGE :Y

*SUMMARY OF SOIL AND GENETIC INPUT PARAMETERS

   SOIL LOWER UPPER   SAT  EXTR  INIT   ROOT   BULK     pH    NO3    NH4    ORG
  DEPTH LIMIT LIMIT    SW    SW    SW   DIST   DENS                          C
   cm   cm3/cm3    cm3/cm3    cm3/cm3         g/cm3         ugN/g  ugN/g     %
-------------------------------------------------------------------------------
  0-  5 0.143 0.204 0.268 0.061 0.172   1.00   1.35   8.50  29.00  29.00   1.08
  5- 15 0.143 0.204 0.268 0.061 0.172   1.00   1.35   8.50  29.00  29.00   1.08
 15- 30 0.143 0.204 0.268 0.061 0.172   1.00   1.35   8.50  29.00  29.00   1.08
 30- 45 0.166 0.234 0.274 0.068 0.225   0.41   1.58   8.50  27.00  16.00   0.80
 45- 60 0.166 0.234 0.274 0.068 0.225   0.41   1.58   8.50  27.00  16.00   0.80
 60- 90 0.155 0.227 0.276 0.072 0.207   0.22   1.50   7.90  53.00  33.00   0.87
 90-120 0.188 0.263 0.308 0.075 0.263   0.12   1.38   8.00   0.01   0.01   0.40

TOT-120  19.6  27.8  33.8   8.3  26.0  <--cm   -  kg/ha-->  484.0  341.8 137370
SOIL ALBEDO    : 0.13      EVAPORATION LIMIT : 6.00         MIN. FACTOR  : 1.00
RUNOFF CURVE # :61.00      DRAINAGE RATE     : 0.60         FERT. FACTOR : 1.00

 Wheat            CULTIVAR: 617636-ENTRY 5            ECOTYPE: CI0700
   P1V   P1D    P5    G1    G2    G3 PHINT
   2.0  32.8 631.5  31.4  52.3  1.20  33.5


*SIMULATED CROP AND SOIL STATUS AT MAIN DEVELOPMENT STAGES
  
 RUN NO.      5   ROOTS ANATOMY                                               

 ...... DATE ......  GROWTH STAGE BIOMASS   LEAF       CROP N      STRESS
 YEARDOY DOM MON DAP ............. kg/ha AREA NUMBER  kg/ha   %   H2O    N
 2022327  23 Nov   0 7 Sowing         0  0.00   0.0     0   0.0  0.00  0.00
 2022328  24 Nov   1 8 Germinate      0  0.00   0.0     0   0.0  0.00  0.00
 2022330  26 Nov   3 9 Emergence      0  0.00   0.0     0   0.0  0.00  0.00
 2023028  28 Jan  66 1 Term Spklt   504  0.41  32.3    20   3.9  0.08  0.05
 2023046  15 Feb  84 2 End Veg     1557  1.35  40.7    49   3.1  0.00  0.00
 2023059  28 Feb  97 3 End Ear Gr  3683  1.21  40.7    46   1.3  0.00  0.00
 2023073  14 Mar 111 4 Beg Gr Fil  6679  1.02  40.7    56   0.8  0.00  0.00
 2023106  16 Apr 144 5 End Gr Fil 13351  0.46  40.7   150   1.1  0.06  0.00
 2023106  16 Apr 144 6 Harvest    13351  0.46  40.7   150   1.1  0.42  0.00
  

*MAIN GROWTH AND DEVELOPMENT VARIABLES

@     VARIABLE                             SIMULATED     MEASURED
      --------                             ---------     --------
      Emergence (DAP)                            3            7
      Anthesis (DAP)                           100          100
      Maturity (DAP)                           144          144
      Product wt (kg dm/ha;no loss)           6616         7020
      Product unit weight (g dm)             0.046        0.049
      Product number (no/m2)                 14450        14222
      Product number (no/group)               10.5        -99.0
      Product harvest index (ratio)           0.50         0.34
      Maximum leaf area index                  1.3          5.3
      Final leaf number (one axis)            40.7        -99.0
      Final shoot number (#/m2)               1377          -99
      Canopy (tops) wt (kg dm/ha)            13351        20705
      Vegetative wt (kg dm/ha)                6735        13685
      Root wt (kg dm/ha)                       571          -99
      Assimilate wt (kg dm/ha)               14635          -99
      Senesced wt (kg dm/ha)                   351          -99
      Reserves wt (kg dm/ha)                  3154          -99
      N uptake (kg/ha)                       163.1        -99.0
      N senesced (kg/ha)                       5.0        -99.0
      Above-ground N (kg/ha)                 149.9        -99.0
      Root N (kg/ha)                           9.1        -99.0
      Vegetative N (kg/ha)                    22.8        -99.0
      Product N (kg/ha)                      127.2        148.5
      Product N harvest index (ratio)         0.85       -99.00
      Product N (%)                            1.9          2.1
      Vegetative N (%)                         0.3        -99.0
      Leaf+stem wt,anthesis (kg dm/ha)        4204          -99
      Leaf+stem N,anthesis (kg/ha)            45.8        -99.0
      Leaf N,anthesis (%)                      3.0        -99.0

*ENVIRONMENTAL AND STRESS FACTORS

 |-----Development Phase------|-------------Environment--------------|----------------Stress-----------------|
                              |--------Average-------|---Cumulative--|         (0=Min, 1=Max Stress)         |
                         Time  Temp  Temp Solar Photop         Evapo |----Water---|--Nitrogen--|--Phosphorus-|
                         Span   Max   Min   Rad  [day]   Rain  Trans  Photo         Photo         Photo
                         days    °C    °C MJ/m2     hr     mm     mm  synth Growth ' synth Growth  synth Growth
--------------------------------------------------------------------------------------------------------------
 Germinate  - Term Spklt   63  26.2   7.1  14.3  11.36   10.0   75.8  0.080  0.132  0.055  0.055 -99.00 -99.00
 Term Spklt - End Veg      18  25.3   5.7  15.8  11.78    3.6   37.9  0.000  0.000  0.000  0.000 -99.00 -99.00
 End Veg    - End Ear Gr   13  23.7   8.2  15.9  12.13    8.6   38.0  0.000  0.011  0.000  0.000 -99.00 -99.00
 End Ear Gr - Beg Gr Fil   14  28.2   7.2  20.5  12.47    0.1   44.8  0.005  0.047  0.000  0.000 -99.00 -99.00
 Beg Gr Fil - End Gr Fil   33  29.1   9.0  23.4  13.12   65.8   97.5  0.060  0.105  0.000  0.000 -99.00 -99.00
  
 Germinate  - End Gr Fil  141  26.7   7.5  17.4  12.01   88.1  294.0  0.050  0.089  0.024  0.024 -99.00 -99.00
--------------------------------------------------------------------------------------------------------------


*RESOURCE PRODUCTIVITY

 Growing season length: 141 days 

 Precipitation during growth season         88.1 mm[rain]
   Dry Matter Productivity                 15.15 kg[DM]/m3[rain]          =  151.5 kg[DM]/ha per mm[rain]
   Yield Productivity                       7.51 kg[grain yield]/m3[rain] =   75.1 kg[yield]/ha per mm[rain]

 Evapotranspiration during growth season   294.0 mm[ET]
   Dry Matter Productivity                  4.54 kg[DM]/m3[ET]            =   45.4 kg[DM]/ha per mm[ET]
   Yield Productivity                       2.25 kg[grain yield]/m3[ET]   =   22.5 kg[yield]/ha per mm[ET]

 Transpiration during growth season        187.9 mm[EP]
   Dry Matter Productivity                  7.10 kg[DM]/m3[EP]            =   71.0 kg[DM]/ha per mm[EP]
   Yield Productivity                       3.52 kg[grain yield]/m3[EP]   =   35.2 kg[yield]/ha per mm[EP]

 Irrigation during growing season          525.1 mm[irrig]
   Dry Matter Productivity                  2.54 kg[DM]/m3[irrig]         =   25.4 kg[DM]/ha per mm[irrig]
   Yield Productivity                       1.26 kg[grain yield]/m3[irrig]=   12.6 kg[yield]/ha per mm[irrig]

 N applied during growing season           323.0 kg[N applied]/ha
   Dry Matter Productivity                  41.3 kg[DM]/kg[N applied]
   Yield Productivity                       20.5 kg[yield]/kg[N applied]

 N uptake during growing season            163.1 kg[N uptake]/ha
   Dry Matter Productivity                  81.8 kg[DM]/kg[N uptake]
   Yield Productivity                       40.6 kg[yield]/kg[N uptake]

--------------------------------------------------------------------------------------------------------------

          WHEAT YIELD :     6616 kg/ha    [Dry weight] 

**************************************************************************************************************
  

*DSSAT Cropping System Model Ver. 4.8.2.000 -release  AUG 23, 2025 16:02:10

*RUN   6        : WW23_G-6                  CSCER048 CIOB2301    6
 MODEL          : CSCER048 - Wheat
 EXPERIMENT     : CIOB2301 WH ROOTS ANATOMY
 DATA PATH      : C:\DSSAT48\Wheat\
 TREATMENT  6   : WW23_G-6                  CSCER048


 CROP           : Wheat            CULTIVAR : ENTRY 6          ECOTYPE :CI0700
 STARTING DATE  : SEP  1 2022
 PLANTING DATE  : NOV 23 2022      PLANTS/m2 :   137.0    ROW SPACING :  20.cm
 WEATHER        : CIOB   2022
 SOIL           : CCENEB2301     TEXTURE : C     -   CIMMYT CENEB 710
 SOIL INIT COND : DEPTH:120cm EXTR. H2O: 82.8mm  NO3:484.0kg/ha  NH4:341.8kg/ha
 WATER BALANCE  : IRRIGATE ON REPORTED DATE(S)
 IRRIGATION     :      525 mm IN     9 APPLICATIONS
 NITROGEN BAL.  : SOIL-N & N-UPTAKE SIMULATION; NO N-FIXATION
 N-FERTILIZER   :      323 kg/ha IN     3 APPLICATIONS
 RESIDUE/MANURE : INITIAL :     0 kg/ha ;    2222 kg/ha IN     1 APPLICATIONS
 ENVIRONM. OPT. : DAYL=    0.00  SRAD=    0.00  TMAX=    0.00  TMIN=    0.00
                  RAIN=    0.00  CO2 =    0.00  DEW =    0.00  WIND=    0.00
 SIMULATION OPT : WATER   :Y  NITROGEN:Y  N-FIX:N  PHOSPH :N  PESTS  :N
                  PHOTO   :C  ET      :R  INFIL:S  HYDROL :R  SOM    :G
                  CO2 418ppm  NSWIT   :1  EVAP :R  SOIL   :2  STEMP  :D
 MANAGEMENT OPT : PLANTING:R  IRRIG   :R  FERT :R  RESIDUE:R  HARVEST:M
                  WEATHER :M  TILLAGE :Y

*SUMMARY OF SOIL AND GENETIC INPUT PARAMETERS

   SOIL LOWER UPPER   SAT  EXTR  INIT   ROOT   BULK     pH    NO3    NH4    ORG
  DEPTH LIMIT LIMIT    SW    SW    SW   DIST   DENS                          C
   cm   cm3/cm3    cm3/cm3    cm3/cm3         g/cm3         ugN/g  ugN/g     %
-------------------------------------------------------------------------------
  0-  5 0.143 0.204 0.268 0.061 0.172   1.00   1.35   8.50  29.00  29.00   1.08
  5- 15 0.143 0.204 0.268 0.061 0.172   1.00   1.35   8.50  29.00  29.00   1.08
 15- 30 0.143 0.204 0.268 0.061 0.172   1.00   1.35   8.50  29.00  29.00   1.08
 30- 45 0.166 0.234 0.274 0.068 0.225   0.41   1.58   8.50  27.00  16.00   0.80
 45- 60 0.166 0.234 0.274 0.068 0.225   0.41   1.58   8.50  27.00  16.00   0.80
 60- 90 0.155 0.227 0.276 0.072 0.207   0.22   1.50   7.90  53.00  33.00   0.87
 90-120 0.188 0.263 0.308 0.075 0.263   0.12   1.38   8.00   0.01   0.01   0.40

TOT-120  19.6  27.8  33.8   8.3  26.0  <--cm   -  kg/ha-->  484.0  341.8 137370
SOIL ALBEDO    : 0.13      EVAPORATION LIMIT : 6.00         MIN. FACTOR  : 1.00
RUNOFF CURVE # :61.00      DRAINAGE RATE     : 0.60         FERT. FACTOR : 1.00

 Wheat            CULTIVAR: 474812-ENTRY 6            ECOTYPE: CI0700
   P1V   P1D    P5    G1    G2    G3 PHINT
   2.0  32.7 606.5  43.3  46.5  0.98  30.5


*SIMULATED CROP AND SOIL STATUS AT MAIN DEVELOPMENT STAGES
  
 RUN NO.      6   ROOTS ANATOMY                                               

 ...... DATE ......  GROWTH STAGE BIOMASS   LEAF       CROP N      STRESS
 YEARDOY DOM MON DAP ............. kg/ha AREA NUMBER  kg/ha   %   H2O    N
 2022327  23 Nov   0 7 Sowing         0  0.00   0.0     0   0.0  0.00  0.00
 2022328  24 Nov   1 8 Germinate      0  0.00   0.0     0   0.0  0.00  0.00
 2022330  26 Nov   3 9 Emergence      0  0.00   0.0     0   0.0  0.00  0.00
 2023028  28 Jan  66 1 Term Spklt   377  0.30  35.4    15   3.9  0.08  0.05
 2023046  15 Feb  84 2 End Veg     1256  1.07  44.6    39   3.1  0.00  0.00
 2023059  28 Feb  97 3 End Ear Gr  3130  0.96  44.6    37   1.2  0.00  0.00
 2023073  14 Mar 111 4 Beg Gr Fil  5759  0.81  44.6    50   0.9  0.00  0.00
 2023105  15 Apr 143 5 End Gr Fil 11579  0.37  44.6   153   1.3  0.00  0.00
 2023105  15 Apr 143 6 Harvest    11579  0.37  44.6   153   1.3  0.11  0.00
  

*MAIN GROWTH AND DEVELOPMENT VARIABLES

@     VARIABLE                             SIMULATED     MEASURED
      --------                             ---------     --------
      Emergence (DAP)                            3            7
      Anthesis (DAP)                           100          100
      Maturity (DAP)                           143          143
      Product wt (kg dm/ha;no loss)           6992         6947
      Product unit weight (g dm)             0.041        0.042
      Product number (no/m2)                 17064        16489
      Product number (no/group)               12.0        -99.0
      Product harvest index (ratio)           0.60         0.39
      Maximum leaf area index                  1.1          5.7
      Final leaf number (one axis)            44.6        -99.0
      Final shoot number (#/m2)               1421          -99
      Canopy (tops) wt (kg dm/ha)            11579        17928
      Vegetative wt (kg dm/ha)                4587        10981
      Root wt (kg dm/ha)                       484          -99
      Assimilate wt (kg dm/ha)               12659          -99
      Senesced wt (kg dm/ha)                   295          -99
      Reserves wt (kg dm/ha)                  1508          -99
      N uptake (kg/ha)                       163.4        -99.0
      N senesced (kg/ha)                       4.2        -99.0
      Above-ground N (kg/ha)                 152.9        -99.0
      Root N (kg/ha)                           7.2        -99.0
      Vegetative N (kg/ha)                    18.5        -99.0
      Product N (kg/ha)                      134.4        133.9
      Product N harvest index (ratio)         0.88       -99.00
      Product N (%)                            1.9          1.9
      Vegetative N (%)                         0.4        -99.0
      Leaf+stem wt,anthesis (kg dm/ha)        3587          -99
      Leaf+stem N,anthesis (kg/ha)            36.5        -99.0
      Leaf N,anthesis (%)                      3.0        -99.0

*ENVIRONMENTAL AND STRESS FACTORS

 |-----Development Phase------|-------------Environment--------------|----------------Stress-----------------|
                              |--------Average-------|---Cumulative--|         (0=Min, 1=Max Stress)         |
                         Time  Temp  Temp Solar Photop         Evapo |----Water---|--Nitrogen--|--Phosphorus-|
                         Span   Max   Min   Rad  [day]   Rain  Trans  Photo         Photo         Photo
                         days    °C    °C MJ/m2     hr     mm     mm  synth Growth ' synth Growth  synth Growth
--------------------------------------------------------------------------------------------------------------
 Germinate  - Term Spklt   63  26.2   7.1  14.3  11.36   10.0   71.7  0.077  0.116  0.054  0.054 -99.00 -99.00
 Term Spklt - End Veg      18  25.3   5.7  15.8  11.78    3.6   33.6  0.000  0.000  0.000  0.000 -99.00 -99.00
 End Veg    - End Ear Gr   13  23.7   8.2  15.9  12.13    8.6   35.8  0.000  0.003  0.000  0.000 -99.00 -99.00
 End Ear Gr - Beg Gr Fil   14  28.2   7.2  20.5  12.47    0.1   40.6  0.000  0.008  0.000  0.000 -99.00 -99.00
 Beg Gr Fil - End Gr Fil   32  29.0   8.9  23.3  13.11   65.8   88.0  0.004  0.032  0.000  0.000 -99.00 -99.00
  
 Germinate  - End Gr Fil  140  26.7   7.5  17.3  12.00   88.1  269.7  0.035  0.061  0.024  0.024 -99.00 -99.00
--------------------------------------------------------------------------------------------------------------


*RESOURCE PRODUCTIVITY

 Growing season length: 140 days 

 Precipitation during growth season         88.1 mm[rain]
   Dry Matter Productivity                 13.14 kg[DM]/m3[rain]          =  131.4 kg[DM]/ha per mm[rain]
   Yield Productivity                       7.94 kg[grain yield]/m3[rain] =   79.4 kg[yield]/ha per mm[rain]

 Evapotranspiration during growth season   269.7 mm[ET]
   Dry Matter Productivity                  4.29 kg[DM]/m3[ET]            =   42.9 kg[DM]/ha per mm[ET]
   Yield Productivity                       2.59 kg[grain yield]/m3[ET]   =   25.9 kg[yield]/ha per mm[ET]

 Transpiration during growth season        160.9 mm[EP]
   Dry Matter Productivity                  7.19 kg[DM]/m3[EP]            =   71.9 kg[DM]/ha per mm[EP]
   Yield Productivity                       4.34 kg[grain yield]/m3[EP]   =   43.4 kg[yield]/ha per mm[EP]

 Irrigation during growing season          525.1 mm[irrig]
   Dry Matter Productivity                  2.21 kg[DM]/m3[irrig]         =   22.1 kg[DM]/ha per mm[irrig]
   Yield Productivity                       1.33 kg[grain yield]/m3[irrig]=   13.3 kg[yield]/ha per mm[irrig]

 N applied during growing season           323.0 kg[N applied]/ha
   Dry Matter Productivity                  35.8 kg[DM]/kg[N applied]
   Yield Productivity                       21.6 kg[yield]/kg[N applied]

 N uptake during growing season            163.4 kg[N uptake]/ha
   Dry Matter Productivity                  70.9 kg[DM]/kg[N uptake]
   Yield Productivity                       42.8 kg[yield]/kg[N uptake]

--------------------------------------------------------------------------------------------------------------

          WHEAT YIELD :     6992 kg/ha    [Dry weight] 

**************************************************************************************************************
  

*DSSAT Cropping System Model Ver. 4.8.2.000 -release  AUG 23, 2025 16:02:11

*RUN   7        : WW23_G-7                  CSCER048 CIOB2301    7
 MODEL          : CSCER048 - Wheat
 EXPERIMENT     : CIOB2301 WH ROOTS ANATOMY
 DATA PATH      : C:\DSSAT48\Wheat\
 TREATMENT  7   : WW23_G-7                  CSCER048


 CROP           : Wheat            CULTIVAR : ENTRY 7          ECOTYPE :CI0701
 STARTING DATE  : SEP  1 2022
 PLANTING DATE  : NOV 23 2022      PLANTS/m2 :   137.0    ROW SPACING :  20.cm
 WEATHER        : CIOB   2022
 SOIL           : CCENEB2301     TEXTURE : C     -   CIMMYT CENEB 710
 SOIL INIT COND : DEPTH:120cm EXTR. H2O: 82.8mm  NO3:484.0kg/ha  NH4:341.8kg/ha
 WATER BALANCE  : IRRIGATE ON REPORTED DATE(S)
 IRRIGATION     :      525 mm IN     9 APPLICATIONS
 NITROGEN BAL.  : SOIL-N & N-UPTAKE SIMULATION; NO N-FIXATION
 N-FERTILIZER   :      323 kg/ha IN     3 APPLICATIONS
 RESIDUE/MANURE : INITIAL :     0 kg/ha ;    2222 kg/ha IN     1 APPLICATIONS
 ENVIRONM. OPT. : DAYL=    0.00  SRAD=    0.00  TMAX=    0.00  TMIN=    0.00
                  RAIN=    0.00  CO2 =    0.00  DEW =    0.00  WIND=    0.00
 SIMULATION OPT : WATER   :Y  NITROGEN:Y  N-FIX:N  PHOSPH :N  PESTS  :N
                  PHOTO   :C  ET      :R  INFIL:S  HYDROL :R  SOM    :G
                  CO2 418ppm  NSWIT   :1  EVAP :R  SOIL   :2  STEMP  :D
 MANAGEMENT OPT : PLANTING:R  IRRIG   :R  FERT :R  RESIDUE:R  HARVEST:M
                  WEATHER :M  TILLAGE :Y

*SUMMARY OF SOIL AND GENETIC INPUT PARAMETERS

   SOIL LOWER UPPER   SAT  EXTR  INIT   ROOT   BULK     pH    NO3    NH4    ORG
  DEPTH LIMIT LIMIT    SW    SW    SW   DIST   DENS                          C
   cm   cm3/cm3    cm3/cm3    cm3/cm3         g/cm3         ugN/g  ugN/g     %
-------------------------------------------------------------------------------
  0-  5 0.143 0.204 0.268 0.061 0.172   1.00   1.35   8.50  29.00  29.00   1.08
  5- 15 0.143 0.204 0.268 0.061 0.172   1.00   1.35   8.50  29.00  29.00   1.08
 15- 30 0.143 0.204 0.268 0.061 0.172   1.00   1.35   8.50  29.00  29.00   1.08
 30- 45 0.166 0.234 0.274 0.068 0.225   0.41   1.58   8.50  27.00  16.00   0.80
 45- 60 0.166 0.234 0.274 0.068 0.225   0.41   1.58   8.50  27.00  16.00   0.80
 60- 90 0.155 0.227 0.276 0.072 0.207   0.22   1.50   7.90  53.00  33.00   0.87
 90-120 0.188 0.263 0.308 0.075 0.263   0.12   1.38   8.00   0.01   0.01   0.40

TOT-120  19.6  27.8  33.8   8.3  26.0  <--cm   -  kg/ha-->  484.0  341.8 137370
SOIL ALBEDO    : 0.13      EVAPORATION LIMIT : 6.00         MIN. FACTOR  : 1.00
RUNOFF CURVE # :61.00      DRAINAGE RATE     : 0.60         FERT. FACTOR : 1.00

 Wheat            CULTIVAR: 748117-ENTRY 7            ECOTYPE: CI0701
   P1V   P1D    P5    G1    G2    G3 PHINT
   2.0  50.2 560.1  25.0  41.4  7.60  59.0


*SIMULATED CROP AND SOIL STATUS AT MAIN DEVELOPMENT STAGES
  
 RUN NO.      7   ROOTS ANATOMY                                               

 ...... DATE ......  GROWTH STAGE BIOMASS   LEAF       CROP N      STRESS
 YEARDOY DOM MON DAP ............. kg/ha AREA NUMBER  kg/ha   %   H2O    N
 2022327  23 Nov   0 7 Sowing         0  0.00   0.0     0   0.0  0.00  0.00
 2022328  24 Nov   1 8 Germinate      0  0.00   0.0     0   0.0  0.00  0.00
 2022330  26 Nov   3 9 Emergence      0  0.00   0.0     0   0.0  0.00  0.00
 2023028  28 Jan  66 1 Term Spklt  1479  1.86  18.8    65   4.4  0.20  0.10
 2023047  16 Feb  85 2 End Veg     3727  4.05  23.8   120   3.2  0.03  0.00
 2023059  28 Feb  97 3 End Ear Gr  5782  3.40  23.8   117   2.0  0.00  0.00
 2023074  15 Mar 112 4 Beg Gr Fil  8951  2.73  23.8   116   1.3  0.10  0.00
 2023103  13 Apr 141 5 End Gr Fil 15259  0.67  23.8   177   1.2  0.08  0.00
 2023103  13 Apr 141 6 Harvest    15259  0.67  23.8   177   1.2  0.31  0.00
  

*MAIN GROWTH AND DEVELOPMENT VARIABLES

@     VARIABLE                             SIMULATED     MEASURED
      --------                             ---------     --------
      Emergence (DAP)                            3            7
      Anthesis (DAP)                           100          101
      Maturity (DAP)                           141          142
      Product wt (kg dm/ha;no loss)           6585         6650
      Product unit weight (g dm)             0.041        0.041
      Product number (no/m2)                 15907        16031
      Product number (no/group)               27.1        -99.0
      Product harvest index (ratio)           0.43         0.41
      Maximum leaf area index                  4.0          6.7
      Final leaf number (one axis)            23.8        -99.0
      Final shoot number (#/m2)                587          -99
      Canopy (tops) wt (kg dm/ha)            15259        16066
      Vegetative wt (kg dm/ha)                8674         9416
      Root wt (kg dm/ha)                       889          -99
      Assimilate wt (kg dm/ha)               17182          -99
      Senesced wt (kg dm/ha)                   446          -99
      Reserves wt (kg dm/ha)                  3828          -99
      N uptake (kg/ha)                       197.1        -99.0
      N senesced (kg/ha)                       6.2        -99.0
      Above-ground N (kg/ha)                 176.7        -99.0
      Root N (kg/ha)                          15.0        -99.0
      Vegetative N (kg/ha)                    36.8        -99.0
      Product N (kg/ha)                      139.9        123.9
      Product N harvest index (ratio)         0.79       -99.00
      Product N (%)                            2.1          1.9
      Vegetative N (%)                         0.4        -99.0
      Leaf+stem wt,anthesis (kg dm/ha)        6341          -99
      Leaf+stem N,anthesis (kg/ha)           116.4        -99.0
      Leaf N,anthesis (%)                      3.0        -99.0

*ENVIRONMENTAL AND STRESS FACTORS

 |-----Development Phase------|-------------Environment--------------|----------------Stress-----------------|
                              |--------Average-------|---Cumulative--|         (0=Min, 1=Max Stress)         |
                         Time  Temp  Temp Solar Photop         Evapo |----Water---|--Nitrogen--|--Phosphorus-|
                         Span   Max   Min   Rad  [day]   Rain  Trans  Photo         Photo         Photo
                         days    °C    °C MJ/m2     hr     mm     mm  synth Growth ' synth Growth  synth Growth
--------------------------------------------------------------------------------------------------------------
 Germinate  - Term Spklt   63  26.2   7.1  14.3  11.36   10.0   91.9  0.199  0.293  0.104  0.104 -99.00 -99.00
 Term Spklt - End Veg      19  25.1   5.8  15.9  11.80    3.6   53.9  0.026  0.067  0.000  0.000 -99.00 -99.00
 End Veg    - End Ear Gr   12  23.8   8.3  15.7  12.14    8.6   36.9  0.000  0.017  0.000  0.000 -99.00 -99.00
 End Ear Gr - Beg Gr Fil   15  28.3   7.3  20.5  12.49    0.1   58.4  0.096  0.150  0.000  0.000 -99.00 -99.00
 Beg Gr Fil - End Gr Fil   29  29.0   8.8  23.3  13.09   65.8  111.0  0.083  0.124  0.000  0.000 -99.00 -99.00
  
 Germinate  - End Gr Fil  138  26.7   7.4  17.2  11.97   88.1  352.1  0.122  0.187  0.048  0.048 -99.00 -99.00
--------------------------------------------------------------------------------------------------------------


*RESOURCE PRODUCTIVITY

 Growing season length: 138 days 

 Precipitation during growth season         88.1 mm[rain]
   Dry Matter Productivity                 17.32 kg[DM]/m3[rain]          =  173.2 kg[DM]/ha per mm[rain]
   Yield Productivity                       7.48 kg[grain yield]/m3[rain] =   74.8 kg[yield]/ha per mm[rain]

 Evapotranspiration during growth season   352.1 mm[ET]
   Dry Matter Productivity                  4.33 kg[DM]/m3[ET]            =   43.3 kg[DM]/ha per mm[ET]
   Yield Productivity                       1.87 kg[grain yield]/m3[ET]   =   18.7 kg[yield]/ha per mm[ET]

 Transpiration during growth season        264.9 mm[EP]
   Dry Matter Productivity                  5.76 kg[DM]/m3[EP]            =   57.6 kg[DM]/ha per mm[EP]
   Yield Productivity                       2.49 kg[grain yield]/m3[EP]   =   24.9 kg[yield]/ha per mm[EP]

 Irrigation during growing season          525.1 mm[irrig]
   Dry Matter Productivity                  2.91 kg[DM]/m3[irrig]         =   29.1 kg[DM]/ha per mm[irrig]
   Yield Productivity                       1.25 kg[grain yield]/m3[irrig]=   12.5 kg[yield]/ha per mm[irrig]

 N applied during growing season           323.0 kg[N applied]/ha
   Dry Matter Productivity                  47.2 kg[DM]/kg[N applied]
   Yield Productivity                       20.4 kg[yield]/kg[N applied]

 N uptake during growing season            197.1 kg[N uptake]/ha
   Dry Matter Productivity                  77.4 kg[DM]/kg[N uptake]
   Yield Productivity                       33.4 kg[yield]/kg[N uptake]

--------------------------------------------------------------------------------------------------------------

          WHEAT YIELD :     6585 kg/ha    [Dry weight] 

**************************************************************************************************************
  

*DSSAT Cropping System Model Ver. 4.8.2.000 -release  AUG 23, 2025 16:02:11

*RUN   8        : WW23_G-8                  CSCER048 CIOB2301    8
 MODEL          : CSCER048 - Wheat
 EXPERIMENT     : CIOB2301 WH ROOTS ANATOMY
 DATA PATH      : C:\DSSAT48\Wheat\
 TREATMENT  8   : WW23_G-8                  CSCER048


 CROP           : Wheat            CULTIVAR : ENTRY 8          ECOTYPE :CI0700
 STARTING DATE  : SEP  1 2022
 PLANTING DATE  : NOV 23 2022      PLANTS/m2 :   137.0    ROW SPACING :  20.cm
 WEATHER        : CIOB   2022
 SOIL           : CCENEB2301     TEXTURE : C     -   CIMMYT CENEB 710
 SOIL INIT COND : DEPTH:120cm EXTR. H2O: 82.8mm  NO3:484.0kg/ha  NH4:341.8kg/ha
 WATER BALANCE  : IRRIGATE ON REPORTED DATE(S)
 IRRIGATION     :      525 mm IN     9 APPLICATIONS
 NITROGEN BAL.  : SOIL-N & N-UPTAKE SIMULATION; NO N-FIXATION
 N-FERTILIZER   :      323 kg/ha IN     3 APPLICATIONS
 RESIDUE/MANURE : INITIAL :     0 kg/ha ;    2222 kg/ha IN     1 APPLICATIONS
 ENVIRONM. OPT. : DAYL=    0.00  SRAD=    0.00  TMAX=    0.00  TMIN=    0.00
                  RAIN=    0.00  CO2 =    0.00  DEW =    0.00  WIND=    0.00
 SIMULATION OPT : WATER   :Y  NITROGEN:Y  N-FIX:N  PHOSPH :N  PESTS  :N
                  PHOTO   :C  ET      :R  INFIL:S  HYDROL :R  SOM    :G
                  CO2 418ppm  NSWIT   :1  EVAP :R  SOIL   :2  STEMP  :D
 MANAGEMENT OPT : PLANTING:R  IRRIG   :R  FERT :R  RESIDUE:R  HARVEST:M
                  WEATHER :M  TILLAGE :Y

*SUMMARY OF SOIL AND GENETIC INPUT PARAMETERS

   SOIL LOWER UPPER   SAT  EXTR  INIT   ROOT   BULK     pH    NO3    NH4    ORG
  DEPTH LIMIT LIMIT    SW    SW    SW   DIST   DENS                          C
   cm   cm3/cm3    cm3/cm3    cm3/cm3         g/cm3         ugN/g  ugN/g     %
-------------------------------------------------------------------------------
  0-  5 0.143 0.204 0.268 0.061 0.172   1.00   1.35   8.50  29.00  29.00   1.08
  5- 15 0.143 0.204 0.268 0.061 0.172   1.00   1.35   8.50  29.00  29.00   1.08
 15- 30 0.143 0.204 0.268 0.061 0.172   1.00   1.35   8.50  29.00  29.00   1.08
 30- 45 0.166 0.234 0.274 0.068 0.225   0.41   1.58   8.50  27.00  16.00   0.80
 45- 60 0.166 0.234 0.274 0.068 0.225   0.41   1.58   8.50  27.00  16.00   0.80
 60- 90 0.155 0.227 0.276 0.072 0.207   0.22   1.50   7.90  53.00  33.00   0.87
 90-120 0.188 0.263 0.308 0.075 0.263   0.12   1.38   8.00   0.01   0.01   0.40

TOT-120  19.6  27.8  33.8   8.3  26.0  <--cm   -  kg/ha-->  484.0  341.8 137370
SOIL ALBEDO    : 0.13      EVAPORATION LIMIT : 6.00         MIN. FACTOR  : 1.00
RUNOFF CURVE # :61.00      DRAINAGE RATE     : 0.60         FERT. FACTOR : 1.00

 Wheat            CULTIVAR: 748118-ENTRY 8            ECOTYPE: CI0700
   P1V   P1D    P5    G1    G2    G3 PHINT
   2.0  43.8 586.9  20.0  46.9  5.65  97.2


*SIMULATED CROP AND SOIL STATUS AT MAIN DEVELOPMENT STAGES
  
 RUN NO.      8   ROOTS ANATOMY                                               

 ...... DATE ......  GROWTH STAGE BIOMASS   LEAF       CROP N      STRESS
 YEARDOY DOM MON DAP ............. kg/ha AREA NUMBER  kg/ha   %   H2O    N
 2022327  23 Nov   0 7 Sowing         0  0.00   0.0     0   0.0  0.00  0.00
 2022328  24 Nov   1 8 Germinate      0  0.00   0.0     0   0.0  0.00  0.00
 2022330  26 Nov   3 9 Emergence      0  0.00   0.0     0   0.0  0.00  0.00
 2023032   1 Feb  70 1 Term Spklt  2159  3.46  12.4   101   4.7  0.24  0.06
 2023050  19 Feb  88 2 End Veg     3926  5.69  15.3   132   3.4  0.03  0.00
 2023063   4 Mar 101 3 End Ear Gr  7121  5.12  15.3   128   1.8  0.01  0.00
 2023076  17 Mar 114 4 Beg Gr Fil 10878  4.15  15.3   126   1.2  0.09  0.00
 2023107  17 Apr 145 5 End Gr Fil 19413  1.15  15.3   167   0.9  0.26  0.00
 2023107  17 Apr 145 6 Harvest    19413  1.15  15.3   167   0.9  0.78  0.00
  

*MAIN GROWTH AND DEVELOPMENT VARIABLES

@     VARIABLE                             SIMULATED     MEASURED
      --------                             ---------     --------
      Emergence (DAP)                            3            7
      Anthesis (DAP)                           104          104
      Maturity (DAP)                           145          146
      Product wt (kg dm/ha;no loss)           6433         6393
      Product unit weight (g dm)             0.042        0.041
      Product number (no/m2)                 15497        15446
      Product number (no/group)               18.8        -99.0
      Product harvest index (ratio)           0.33         0.31
      Maximum leaf area index                  5.7          5.7
      Final leaf number (one axis)            15.3        -99.0
      Final shoot number (#/m2)                824          -99
      Canopy (tops) wt (kg dm/ha)            19413        20909
      Vegetative wt (kg dm/ha)               12980        14516
      Root wt (kg dm/ha)                      1075          -99
      Assimilate wt (kg dm/ha)               21641          -99
      Senesced wt (kg dm/ha)                   432          -99
      Reserves wt (kg dm/ha)                  7068          -99
      N uptake (kg/ha)                       190.5        -99.0
      N senesced (kg/ha)                       6.0        -99.0
      Above-ground N (kg/ha)                 167.2        -99.0
      Root N (kg/ha)                          18.1        -99.0
      Vegetative N (kg/ha)                    43.6        -99.0
      Product N (kg/ha)                      123.6        141.9
      Product N harvest index (ratio)         0.74       -99.00
      Product N (%)                            1.9          2.2
      Vegetative N (%)                         0.3        -99.0
      Leaf+stem wt,anthesis (kg dm/ha)        7663          -99
      Leaf+stem N,anthesis (kg/ha)           127.1        -99.0
      Leaf N,anthesis (%)                      3.0        -99.0

*ENVIRONMENTAL AND STRESS FACTORS

 |-----Development Phase------|-------------Environment--------------|----------------Stress-----------------|
                              |--------Average-------|---Cumulative--|         (0=Min, 1=Max Stress)         |
                         Time  Temp  Temp Solar Photop         Evapo |----Water---|--Nitrogen--|--Phosphorus-|
                         Span   Max   Min   Rad  [day]   Rain  Trans  Photo         Photo         Photo
                         days    °C    °C MJ/m2     hr     mm     mm  synth Growth ' synth Growth  synth Growth
--------------------------------------------------------------------------------------------------------------
 Germinate  - Term Spklt   67  26.0   7.0  14.4  11.38   10.0  114.3  0.239  0.335  0.065  0.065 -99.00 -99.00
 Term Spklt - End Veg      18  25.2   6.5  15.4  11.87   11.8   53.0  0.032  0.058  0.000  0.000 -99.00 -99.00
 End Veg    - End Ear Gr   13  23.7   7.2  17.2  12.23    0.5   42.9  0.013  0.041  0.000  0.000 -99.00 -99.00
 End Ear Gr - Beg Gr Fil   13  29.7   8.9  20.2  12.57   13.7   51.2  0.090  0.123  0.000  0.000 -99.00 -99.00
 Beg Gr Fil - End Gr Fil   31  29.3   8.7  24.3  13.18   52.1  114.5  0.263  0.303  0.000  0.000 -99.00 -99.00
  
 Germinate  - End Gr Fil  142  26.8   7.5  17.5  12.02   88.1  375.9  0.184  0.246  0.031  0.031 -99.00 -99.00
--------------------------------------------------------------------------------------------------------------


*RESOURCE PRODUCTIVITY

 Growing season length: 142 days 

 Precipitation during growth season         88.1 mm[rain]
   Dry Matter Productivity                 22.04 kg[DM]/m3[rain]          =  220.4 kg[DM]/ha per mm[rain]
   Yield Productivity                       7.30 kg[grain yield]/m3[rain] =   73.0 kg[yield]/ha per mm[rain]

 Evapotranspiration during growth season   375.9 mm[ET]
   Dry Matter Productivity                  5.17 kg[DM]/m3[ET]            =   51.7 kg[DM]/ha per mm[ET]
   Yield Productivity                       1.71 kg[grain yield]/m3[ET]   =   17.1 kg[yield]/ha per mm[ET]

 Transpiration during growth season        317.5 mm[EP]
   Dry Matter Productivity                  6.11 kg[DM]/m3[EP]            =   61.1 kg[DM]/ha per mm[EP]
   Yield Productivity                       2.03 kg[grain yield]/m3[EP]   =   20.3 kg[yield]/ha per mm[EP]

 Irrigation during growing season          525.1 mm[irrig]
   Dry Matter Productivity                  3.70 kg[DM]/m3[irrig]         =   37.0 kg[DM]/ha per mm[irrig]
   Yield Productivity                       1.23 kg[grain yield]/m3[irrig]=   12.3 kg[yield]/ha per mm[irrig]

 N applied during growing season           323.0 kg[N applied]/ha
   Dry Matter Productivity                  60.1 kg[DM]/kg[N applied]
   Yield Productivity                       19.9 kg[yield]/kg[N applied]

 N uptake during growing season            190.5 kg[N uptake]/ha
   Dry Matter Productivity                 101.9 kg[DM]/kg[N uptake]
   Yield Productivity                       33.8 kg[yield]/kg[N uptake]

--------------------------------------------------------------------------------------------------------------

          WHEAT YIELD :     6433 kg/ha    [Dry weight] 

**************************************************************************************************************
  

*DSSAT Cropping System Model Ver. 4.8.2.000 -release  AUG 23, 2025 16:02:11

*RUN   9        : WW23_G-9                  CSCER048 CIOB2301    9
 MODEL          : CSCER048 - Wheat
 EXPERIMENT     : CIOB2301 WH ROOTS ANATOMY
 DATA PATH      : C:\DSSAT48\Wheat\
 TREATMENT  9   : WW23_G-9                  CSCER048


 CROP           : Wheat            CULTIVAR : ENTRY 9          ECOTYPE :CI0700
 STARTING DATE  : SEP  1 2022
 PLANTING DATE  : NOV 23 2022      PLANTS/m2 :   137.0    ROW SPACING :  20.cm
 WEATHER        : CIOB   2022
 SOIL           : CCENEB2301     TEXTURE : C     -   CIMMYT CENEB 710
 SOIL INIT COND : DEPTH:120cm EXTR. H2O: 82.8mm  NO3:484.0kg/ha  NH4:341.8kg/ha
 WATER BALANCE  : IRRIGATE ON REPORTED DATE(S)
 IRRIGATION     :      525 mm IN     9 APPLICATIONS
 NITROGEN BAL.  : SOIL-N & N-UPTAKE SIMULATION; NO N-FIXATION
 N-FERTILIZER   :      323 kg/ha IN     3 APPLICATIONS
 RESIDUE/MANURE : INITIAL :     0 kg/ha ;    2222 kg/ha IN     1 APPLICATIONS
 ENVIRONM. OPT. : DAYL=    0.00  SRAD=    0.00  TMAX=    0.00  TMIN=    0.00
                  RAIN=    0.00  CO2 =    0.00  DEW =    0.00  WIND=    0.00
 SIMULATION OPT : WATER   :Y  NITROGEN:Y  N-FIX:N  PHOSPH :N  PESTS  :N
                  PHOTO   :C  ET      :R  INFIL:S  HYDROL :R  SOM    :G
                  CO2 418ppm  NSWIT   :1  EVAP :R  SOIL   :2  STEMP  :D
 MANAGEMENT OPT : PLANTING:R  IRRIG   :R  FERT :R  RESIDUE:R  HARVEST:M
                  WEATHER :M  TILLAGE :Y

*SUMMARY OF SOIL AND GENETIC INPUT PARAMETERS

   SOIL LOWER UPPER   SAT  EXTR  INIT   ROOT   BULK     pH    NO3    NH4    ORG
  DEPTH LIMIT LIMIT    SW    SW    SW   DIST   DENS                          C
   cm   cm3/cm3    cm3/cm3    cm3/cm3         g/cm3         ugN/g  ugN/g     %
-------------------------------------------------------------------------------
  0-  5 0.143 0.204 0.268 0.061 0.172   1.00   1.35   8.50  29.00  29.00   1.08
  5- 15 0.143 0.204 0.268 0.061 0.172   1.00   1.35   8.50  29.00  29.00   1.08
 15- 30 0.143 0.204 0.268 0.061 0.172   1.00   1.35   8.50  29.00  29.00   1.08
 30- 45 0.166 0.234 0.274 0.068 0.225   0.41   1.58   8.50  27.00  16.00   0.80
 45- 60 0.166 0.234 0.274 0.068 0.225   0.41   1.58   8.50  27.00  16.00   0.80
 60- 90 0.155 0.227 0.276 0.072 0.207   0.22   1.50   7.90  53.00  33.00   0.87
 90-120 0.188 0.263 0.308 0.075 0.263   0.12   1.38   8.00   0.01   0.01   0.40

TOT-120  19.6  27.8  33.8   8.3  26.0  <--cm   -  kg/ha-->  484.0  341.8 137370
SOIL ALBEDO    : 0.13      EVAPORATION LIMIT : 6.00         MIN. FACTOR  : 1.00
RUNOFF CURVE # :61.00      DRAINAGE RATE     : 0.60         FERT. FACTOR : 1.00

 Wheat            CULTIVAR: 474804-ENTRY 9            ECOTYPE: CI0700
   P1V   P1D    P5    G1    G2    G3 PHINT
   2.0  40.1 572.5  20.4  44.8  4.06  99.8


*SIMULATED CROP AND SOIL STATUS AT MAIN DEVELOPMENT STAGES
  
 RUN NO.      9   ROOTS ANATOMY                                               

 ...... DATE ......  GROWTH STAGE BIOMASS   LEAF       CROP N      STRESS
 YEARDOY DOM MON DAP ............. kg/ha AREA NUMBER  kg/ha   %   H2O    N
 2022327  23 Nov   0 7 Sowing         0  0.00   0.0     0   0.0  0.00  0.00
 2022328  24 Nov   1 8 Germinate      0  0.00   0.0     0   0.0  0.00  0.00
 2022330  26 Nov   3 9 Emergence      0  0.00   0.0     0   0.0  0.00  0.00
 2023030  30 Jan  68 1 Term Spklt  2030  3.32  11.8    95   4.7  0.25  0.07
 2023049  18 Feb  87 2 End Veg     3918  5.70  14.8   130   3.3  0.03  0.00
 2023061   2 Mar  99 3 End Ear Gr  6683  5.16  14.8   126   1.9  0.00  0.00
 2023075  16 Mar 113 4 Beg Gr Fil 10926  4.17  14.8   124   1.1  0.10  0.00
 2023105  15 Apr 143 5 End Gr Fil 19401  1.43  14.8   162   0.8  0.22  0.00
 2023105  15 Apr 143 6 Harvest    19401  1.43  14.8   162   0.8  0.76  0.00
  

*MAIN GROWTH AND DEVELOPMENT VARIABLES

@     VARIABLE                             SIMULATED     MEASURED
      --------                             ---------     --------
      Emergence (DAP)                            3            7
      Anthesis (DAP)                           103          101
      Maturity (DAP)                           143          145
      Product wt (kg dm/ha;no loss)           6117         6560
      Product unit weight (g dm)             0.039        0.043
      Product number (no/m2)                 15519        15412
      Product number (no/group)               17.4        -99.0
      Product harvest index (ratio)           0.32         0.33
      Maximum leaf area index                  5.7          5.8
      Final leaf number (one axis)            14.8        -99.0
      Final shoot number (#/m2)                891          -99
      Canopy (tops) wt (kg dm/ha)            19401        20154
      Vegetative wt (kg dm/ha)               13284        13594
      Root wt (kg dm/ha)                      1047          -99
      Assimilate wt (kg dm/ha)               21525          -99
      Senesced wt (kg dm/ha)                   377          -99
      Reserves wt (kg dm/ha)                  7412          -99
      N uptake (kg/ha)                       184.2        -99.0
      N senesced (kg/ha)                       5.2        -99.0
      Above-ground N (kg/ha)                 162.2        -99.0
      Root N (kg/ha)                          17.6        -99.0
      Vegetative N (kg/ha)                    44.6        -99.0
      Product N (kg/ha)                      117.6        131.8
      Product N harvest index (ratio)         0.73       -99.00
      Product N (%)                            1.9          2.0
      Vegetative N (%)                         0.3        -99.0
[...]
   Dry Matter Productivity                  3.07 kg[DM]/m3[rain]          =   30.7 kg[DM]/ha per mm[rain]
   Yield Productivity                       2.10 kg[grain yield]/m3[rain] =   21.0 kg[yield]/ha per mm[rain]

 Evapotranspiration during growth season    87.9 mm[ET]
   Dry Matter Productivity                  3.08 kg[DM]/m3[ET]            =   30.8 kg[DM]/ha per mm[ET]
   Yield Productivity                       2.10 kg[grain yield]/m3[ET]   =   21.0 kg[yield]/ha per mm[ET]

 Transpiration during growth season         50.1 mm[EP]
   Dry Matter Productivity                  5.40 kg[DM]/m3[EP]            =   54.0 kg[DM]/ha per mm[EP]
   Yield Productivity                       3.69 kg[grain yield]/m3[EP]   =   36.9 kg[yield]/ha per mm[EP]

 Irrigation during growing season          120.0 mm[irrig]
   Dry Matter Productivity                  2.26 kg[DM]/m3[irrig]         =   22.6 kg[DM]/ha per mm[irrig]
   Yield Productivity                       1.54 kg[grain yield]/m3[irrig]=   15.4 kg[yield]/ha per mm[irrig]

 N applied during growing season           173.0 kg[N applied]/ha
   Dry Matter Productivity                  15.6 kg[DM]/kg[N applied]
   Yield Productivity                       10.7 kg[yield]/kg[N applied]

 N uptake during growing season             54.1 kg[N uptake]/ha
   Dry Matter Productivity                  50.0 kg[DM]/kg[N uptake]
   Yield Productivity                       34.1 kg[yield]/kg[N uptake]

--------------------------------------------------------------------------------------------------------------

          WHEAT YIELD :     1849 kg/ha    [Dry weight] 

**************************************************************************************************************
  

*DSSAT Cropping System Model Ver. 4.8.2.000 -release  AUG 23, 2025 16:02:14

*RUN  69        : DR23_G-13                 CSCER048 CIOB2302   13
 MODEL          : CSCER048 - Wheat
 EXPERIMENT     : CIOB2302 WH ROOTS ANATOMY DROUGHT
 DATA PATH      : C:\DSSAT48\Wheat\
 TREATMENT 13   : DR23_G-13                 CSCER048


 CROP           : Wheat            CULTIVAR : ENTRY 13         ECOTYPE :CI0701
 STARTING DATE  : SEP  1 2022
 PLANTING DATE  : DEC  3 2022      PLANTS/m2 :   150.0    ROW SPACING :  36.cm
 WEATHER        : CIOB   2022
 SOIL           : CCENEB2301     TEXTURE : C     -   CIMMYT CENEB 710
 SOIL INIT COND : DEPTH:120cm EXTR. H2O: 82.8mm  NO3:252.3kg/ha  NH4:205.5kg/ha
 WATER BALANCE  : IRRIGATE ON REPORTED DATE(S)
 IRRIGATION     :      120 mm IN     1 APPLICATIONS
 NITROGEN BAL.  : SOIL-N & N-UPTAKE SIMULATION; NO N-FIXATION
 N-FERTILIZER   :      173 kg/ha IN     2 APPLICATIONS
 RESIDUE/MANURE : INITIAL :     0 kg/ha ;    2222 kg/ha IN     1 APPLICATIONS
 ENVIRONM. OPT. : DAYL=    0.00  SRAD=    0.00  TMAX=    0.00  TMIN=    0.00
                  RAIN=    0.00  CO2 =    0.00  DEW =    0.00  WIND=    0.00
 SIMULATION OPT : WATER   :Y  NITROGEN:Y  N-FIX:N  PHOSPH :N  PESTS  :N
                  PHOTO   :C  ET      :R  INFIL:S  HYDROL :R  SOM    :G
                  CO2 418ppm  NSWIT   :1  EVAP :R  SOIL   :2  STEMP  :D
 MANAGEMENT OPT : PLANTING:R  IRRIG   :R  FERT :R  RESIDUE:R  HARVEST:M
                  WEATHER :M  TILLAGE :Y

*SUMMARY OF SOIL AND GENETIC INPUT PARAMETERS

   SOIL LOWER UPPER   SAT  EXTR  INIT   ROOT   BULK     pH    NO3    NH4    ORG
  DEPTH LIMIT LIMIT    SW    SW    SW   DIST   DENS                          C
   cm   cm3/cm3    cm3/cm3    cm3/cm3         g/cm3         ugN/g  ugN/g     %
-------------------------------------------------------------------------------
  0-  5 0.143 0.204 0.268 0.061 0.204   1.00   1.35   8.80  19.00  12.00   1.10
  5- 15 0.143 0.204 0.268 0.061 0.204   1.00   1.35   8.80  19.00  12.00   1.10
 15- 30 0.143 0.204 0.268 0.061 0.204   1.00   1.35   8.80  19.00  12.00   1.10
 30- 45 0.166 0.234 0.274 0.068 0.230   0.41   1.58   8.50  18.00  16.00   0.40
 45- 60 0.166 0.234 0.274 0.068 0.230   0.41   1.58   8.50  18.00  16.00   0.40
 60- 90 0.155 0.227 0.276 0.072 0.230   0.22   1.50   8.50  20.00  18.00   0.40
 90-120 0.188 0.263 0.308 0.075 0.263   0.12   1.38   8.00   0.01   0.01   0.40

TOT-120  19.6  27.8  33.8   8.3  27.8  <--cm   -  kg/ha-->  252.3  205.5  98070
SOIL ALBEDO    : 0.13      EVAPORATION LIMIT : 6.00         MIN. FACTOR  : 1.00
RUNOFF CURVE # :61.00      DRAINAGE RATE     : 0.60         FERT. FACTOR : 1.00

 Wheat            CULTIVAR: 542933-ENTRY 13           ECOTYPE: CI0701
   P1V   P1D    P5    G1    G2    G3 PHINT
   2.0  41.0 549.0  50.0  47.7  6.61  31.1


*SIMULATED CROP AND SOIL STATUS AT MAIN DEVELOPMENT STAGES
  
 RUN NO.     69   ROOTS ANATOMY DROUGHT                                       

 ...... DATE ......  GROWTH STAGE BIOMASS   LEAF       CROP N      STRESS
 YEARDOY DOM MON DAP ............. kg/ha AREA NUMBER  kg/ha   %   H2O    N
 2022337   3 Dec   0 7 Sowing         0  0.00   0.0     0   0.0  0.00  0.00
 2022338   4 Dec   1 8 Germinate      0  0.00   0.0     0   0.0  0.00  0.00
 2022339   5 Dec   2 9 Emergence      0  0.00   0.0     0   0.0  0.00  0.00
 2023031  31 Jan  59 1 Term Spklt   351  0.27  30.4    13   3.8  0.22  0.08
 2023049  18 Feb  77 2 End Veg      714  0.59  39.4    22   3.1  0.36  0.00
 2023062   3 Mar  90 3 End Ear Gr  1152  0.42  39.4    21   1.8  0.37  0.00
 2023076  17 Mar 104 4 Beg Gr Fil  1529  0.26  39.4    22   1.4  0.50  0.00
 2023105  15 Apr 133 5 End Gr Fil  2395  0.00  39.4    48   2.0  0.00  0.00
 2023105  15 Apr 133 6 Harvest     2395  0.00  39.4    48   2.0  0.00  0.00
  

*MAIN GROWTH AND DEVELOPMENT VARIABLES

@     VARIABLE                             SIMULATED     MEASURED
      --------                             ---------     --------
      Emergence (DAP)                            2            6
      Anthesis (DAP)                            92           86
      Maturity (DAP)                           133          118
      Product wt (kg dm/ha;no loss)           1542         3437
      Product unit weight (g dm)             0.026        0.039
      Product number (no/m2)                  5844         8856
      Product number (no/group)                7.0        -99.0
      Product harvest index (ratio)           0.64         0.41
      Maximum leaf area index                  0.6          4.6
      Final leaf number (one axis)            39.4        -99.0
      Final shoot number (#/m2)                837          -99
      Canopy (tops) wt (kg dm/ha)             2395         8377
      Vegetative wt (kg dm/ha)                 853         4940
      Root wt (kg dm/ha)                       233          -99
      Assimilate wt (kg dm/ha)                3039          -99
      Senesced wt (kg dm/ha)                   310          -99
      Reserves wt (kg dm/ha)                     5          -99
      N uptake (kg/ha)                        54.5        -99.0
      N senesced (kg/ha)                       4.4        -99.0
      Above-ground N (kg/ha)                  47.7        -99.0
      Root N (kg/ha)                           3.9        -99.0
      Vegetative N (kg/ha)                     5.6        -99.0
      Product N (kg/ha)                       42.1         68.3
      Product N harvest index (ratio)         0.88       -99.00
      Product N (%)                            2.7          2.0
      Vegetative N (%)                         0.7        -99.0
      Leaf+stem wt,anthesis (kg dm/ha)        1213          -99
      Leaf+stem N,anthesis (kg/ha)            21.0        -99.0
      Leaf N,anthesis (%)                      3.1        -99.0

*ENVIRONMENTAL AND STRESS FACTORS

 |-----Development Phase------|-------------Environment--------------|----------------Stress-----------------|
                              |--------Average-------|---Cumulative--|         (0=Min, 1=Max Stress)         |
                         Time  Temp  Temp Solar Photop         Evapo |----Water---|--Nitrogen--|--Phosphorus-|
                         Span   Max   Min   Rad  [day]   Rain  Trans  Photo         Photo         Photo
                         days    °C    °C MJ/m2     hr     mm     mm  synth Growth ' synth Growth  synth Growth
--------------------------------------------------------------------------------------------------------------
 Germinate  - Term Spklt   57  25.6   6.5  14.5  11.37   10.0   27.9  0.218  0.369  0.081  0.081 -99.00 -99.00
 Term Spklt - End Veg      18  25.1   6.1  15.5  11.85   11.8   12.4  0.359  0.486  0.000  0.000 -99.00 -99.00
 End Veg    - End Ear Gr   13  23.5   8.1  16.3  12.20    0.5   13.4  0.372  0.481  0.000  0.000 -99.00 -99.00
 End Ear Gr - Beg Gr Fil   14  29.5   8.4  20.3  12.55   13.7    6.2  0.499  0.598  0.000  0.000 -99.00 -99.00
 Beg Gr Fil - End Gr Fil   29  29.2   8.6  24.1  13.15   52.1   23.3  0.000  0.000  0.000  0.000 -99.00 -99.00
  
 Germinate  - End Gr Fil  131  26.5   7.3  17.5  12.04   88.1   83.2  0.234  0.339  0.035  0.035 -99.00 -99.00
--------------------------------------------------------------------------------------------------------------


*RESOURCE PRODUCTIVITY

 Growing season length: 131 days 

 Precipitation during growth season         88.1 mm[rain]
   Dry Matter Productivity                  2.72 kg[DM]/m3[rain]          =   27.2 kg[DM]/ha per mm[rain]
   Yield Productivity                       1.75 kg[grain yield]/m3[rain] =   17.5 kg[yield]/ha per mm[rain]

 Evapotranspiration during growth season    83.2 mm[ET]
   Dry Matter Productivity                  2.88 kg[DM]/m3[ET]            =   28.8 kg[DM]/ha per mm[ET]
   Yield Productivity                       1.85 kg[grain yield]/m3[ET]   =   18.5 kg[yield]/ha per mm[ET]

 Transpiration during growth season         45.3 mm[EP]
   Dry Matter Productivity                  5.29 kg[DM]/m3[EP]            =   52.9 kg[DM]/ha per mm[EP]
   Yield Productivity                       3.40 kg[grain yield]/m3[EP]   =   34.0 kg[yield]/ha per mm[EP]

 Irrigation during growing season          120.0 mm[irrig]
   Dry Matter Productivity                  2.00 kg[DM]/m3[irrig]         =   20.0 kg[DM]/ha per mm[irrig]
   Yield Productivity                       1.28 kg[grain yield]/m3[irrig]=   12.8 kg[yield]/ha per mm[irrig]

 N applied during growing season           173.0 kg[N applied]/ha
   Dry Matter Productivity                  13.8 kg[DM]/kg[N applied]
   Yield Productivity                        8.9 kg[yield]/kg[N applied]

 N uptake during growing season             54.5 kg[N uptake]/ha
   Dry Matter Productivity                  43.9 kg[DM]/kg[N uptake]
   Yield Productivity                       28.3 kg[yield]/kg[N uptake]

--------------------------------------------------------------------------------------------------------------

          WHEAT YIELD :     1542 kg/ha    [Dry weight] 

**************************************************************************************************************
  

*DSSAT Cropping System Model Ver. 4.8.2.000 -release  AUG 23, 2025 16:02:14

*RUN  70        : DR23_G-14                 CSCER048 CIOB2302   14
 MODEL          : CSCER048 - Wheat
 EXPERIMENT     : CIOB2302 WH ROOTS ANATOMY DROUGHT
 DATA PATH      : C:\DSSAT48\Wheat\
 TREATMENT 14   : DR23_G-14                 CSCER048


 CROP           : Wheat            CULTIVAR : ENTRY 14         ECOTYPE :CI0701
 STARTING DATE  : SEP  1 2022
 PLANTING DATE  : DEC  3 2022      PLANTS/m2 :   150.0    ROW SPACING :  36.cm
 WEATHER        : CIOB   2022
 SOIL           : CCENEB2301     TEXTURE : C     -   CIMMYT CENEB 710
 SOIL INIT COND : DEPTH:120cm EXTR. H2O: 82.8mm  NO3:252.3kg/ha  NH4:205.5kg/ha
 WATER BALANCE  : IRRIGATE ON REPORTED DATE(S)
 IRRIGATION     :      120 mm IN     1 APPLICATIONS
 NITROGEN BAL.  : SOIL-N & N-UPTAKE SIMULATION; NO N-FIXATION
 N-FERTILIZER   :      173 kg/ha IN     2 APPLICATIONS
 RESIDUE/MANURE : INITIAL :     0 kg/ha ;    2222 kg/ha IN     1 APPLICATIONS
 ENVIRONM. OPT. : DAYL=    0.00  SRAD=    0.00  TMAX=    0.00  TMIN=    0.00
                  RAIN=    0.00  CO2 =    0.00  DEW =    0.00  WIND=    0.00
 SIMULATION OPT : WATER   :Y  NITROGEN:Y  N-FIX:N  PHOSPH :N  PESTS  :N
                  PHOTO   :C  ET      :R  INFIL:S  HYDROL :R  SOM    :G
                  CO2 418ppm  NSWIT   :1  EVAP :R  SOIL   :2  STEMP  :D
 MANAGEMENT OPT : PLANTING:R  IRRIG   :R  FERT :R  RESIDUE:R  HARVEST:M
                  WEATHER :M  TILLAGE :Y

*SUMMARY OF SOIL AND GENETIC INPUT PARAMETERS

   SOIL LOWER UPPER   SAT  EXTR  INIT   ROOT   BULK     pH    NO3    NH4    ORG
  DEPTH LIMIT LIMIT    SW    SW    SW   DIST   DENS                          C
   cm   cm3/cm3    cm3/cm3    cm3/cm3         g/cm3         ugN/g  ugN/g     %
-------------------------------------------------------------------------------
  0-  5 0.143 0.204 0.268 0.061 0.204   1.00   1.35   8.80  19.00  12.00   1.10
  5- 15 0.143 0.204 0.268 0.061 0.204   1.00   1.35   8.80  19.00  12.00   1.10
 15- 30 0.143 0.204 0.268 0.061 0.204   1.00   1.35   8.80  19.00  12.00   1.10
 30- 45 0.166 0.234 0.274 0.068 0.230   0.41   1.58   8.50  18.00  16.00   0.40
 45- 60 0.166 0.234 0.274 0.068 0.230   0.41   1.58   8.50  18.00  16.00   0.40
 60- 90 0.155 0.227 0.276 0.072 0.230   0.22   1.50   8.50  20.00  18.00   0.40
 90-120 0.188 0.263 0.308 0.075 0.263   0.12   1.38   8.00   0.01   0.01   0.40

TOT-120  19.6  27.8  33.8   8.3  27.8  <--cm   -  kg/ha-->  252.3  205.5  98070
SOIL ALBEDO    : 0.13      EVAPORATION LIMIT : 6.00         MIN. FACTOR  : 1.00
RUNOFF CURVE # :61.00      DRAINAGE RATE     : 0.60         FERT. FACTOR : 1.00

 Wheat            CULTIVAR: 589328-ENTRY 14           ECOTYPE: CI0701
   P1V   P1D    P5    G1    G2    G3 PHINT
   2.0  32.0 567.0  28.3  44.5  8.00  99.0


*SIMULATED CROP AND SOIL STATUS AT MAIN DEVELOPMENT STAGES
  
 RUN NO.     70   ROOTS ANATOMY DROUGHT                                       

 ...... DATE ......  GROWTH STAGE BIOMASS   LEAF       CROP N      STRESS
 YEARDOY DOM MON DAP ............. kg/ha AREA NUMBER  kg/ha   %   H2O    N
 2022337   3 Dec   0 7 Sowing         0  0.00   0.0     0   0.0  0.00  0.00
 2022338   4 Dec   1 8 Germinate      0  0.00   0.0     0   0.0  0.00  0.00
 2022339   5 Dec   2 9 Emergence      0  0.00   0.0     0   0.0  0.00  0.00
 2023027  27 Jan  55 1 Term Spklt   461  0.77   9.6    21   4.5  0.54  0.12
 2023045  14 Feb  73 2 End Veg      806  1.12  12.5    26   3.2  0.60  0.00
 2023058  27 Feb  86 3 End Ear Gr  1264  0.74  12.5    25   1.9  0.56  0.00
 2023073  14 Mar 101 4 Beg Gr Fil  1679  0.47  12.5    24   1.4  0.66  0.00
 2023103  13 Apr 131 5 End Gr Fil  3684  0.12  12.5    42   1.1  0.05  0.00
 2023103  13 Apr 131 6 Harvest     3684  0.12  12.5    42   1.1  0.00  0.00
  

*MAIN GROWTH AND DEVELOPMENT VARIABLES

@     VARIABLE                             SIMULATED     MEASURED
      --------                             ---------     --------
      Emergence (DAP)                            2            6
      Anthesis (DAP)                            89           83
      Maturity (DAP)                           131          114
      Product wt (kg dm/ha;no loss)           1612         3107
      Product unit weight (g dm)             0.045        0.034
      Product number (no/m2)                  3622         9175
      Product number (no/group)               11.3        -99.0
      Product harvest index (ratio)           0.44         0.44
      Maximum leaf area index                  1.1          4.3
      Final leaf number (one axis)            12.5        -99.0
      Final shoot number (#/m2)                320          -99
      Canopy (tops) wt (kg dm/ha)             3684         7086
      Vegetative wt (kg dm/ha)                2072         3979
      Root wt (kg dm/ha)                       290          -99
      Assimilate wt (kg dm/ha)                4327          -99
      Senesced wt (kg dm/ha)                   214          -99
      Reserves wt (kg dm/ha)                  1115          -99
      N uptake (kg/ha)                        48.0        -99.0
      N senesced (kg/ha)                       3.0        -99.0
      Above-ground N (kg/ha)                  41.6        -99.0
      Root N (kg/ha)                           4.9        -99.0
      Vegetative N (kg/ha)                     6.9        -99.0
      Product N (kg/ha)                       34.7         59.1
      Product N harvest index (ratio)         0.83       -99.00
      Product N (%)                            2.2          1.9
      Vegetative N (%)                         0.3        -99.0
      Leaf+stem wt,anthesis (kg dm/ha)        1357          -99
      Leaf+stem N,anthesis (kg/ha)            24.4        -99.0
      Leaf N,anthesis (%)                      3.0        -99.0

*ENVIRONMENTAL AND STRESS FACTORS

 |-----Development Phase------|-------------Environment--------------|----------------Stress-----------------|
                              |--------Average-------|---Cumulative--|         (0=Min, 1=Max Stress)         |
                         Time  Temp  Temp Solar Photop         Evapo |----Water---|--Nitrogen--|--Phosphorus-|
                         Span   Max   Min   Rad  [day]   Rain  Trans  Photo         Photo         Photo
                         days    °C    °C MJ/m2     hr     mm     mm  synth Growth ' synth Growth  synth Growth
--------------------------------------------------------------------------------------------------------------
 Germinate  - Term Spklt   53  25.7   6.6  14.3  11.35   10.0   27.8  0.540  0.631  0.115  0.115 -99.00 -99.00
 Term Spklt - End Veg      18  25.5   5.7  15.6  11.76    0.1   10.1  0.604  0.696  0.000  0.000 -99.00 -99.00
 End Veg    - End Ear Gr   13  23.3   8.2  15.8  12.11   12.1   16.9  0.564  0.658  0.000  0.000 -99.00 -99.00
 End Ear Gr - Beg Gr Fil   15  28.1   7.0  20.4  12.46    0.1    6.9  0.664  0.736  0.000  0.000 -99.00 -99.00
 Beg Gr Fil - End Gr Fil   30  29.0   8.8  23.2  13.08   65.8   39.3  0.054  0.097  0.000  0.000 -99.00 -99.00
  
 Germinate  - End Gr Fil  129  26.5   7.2  17.4  12.02   88.1  100.9  0.453  0.531  0.047  0.047 -99.00 -99.00
--------------------------------------------------------------------------------------------------------------


*RESOURCE PRODUCTIVITY

 Growing season length: 129 days 

 Precipitation during growth season         88.1 mm[rain]
   Dry Matter Productivity                  4.18 kg[DM]/m3[rain]          =   41.8 kg[DM]/ha per mm[rain]
   Yield Productivity                       1.83 kg[grain yield]/m3[rain] =   18.3 kg[yield]/ha per mm[rain]

 Evapotranspiration during growth season   100.9 mm[ET]
   Dry Matter Productivity                  3.65 kg[DM]/m3[ET]            =   36.5 kg[DM]/ha per mm[ET]
   Yield Productivity                       1.60 kg[grain yield]/m3[ET]   =   16.0 kg[yield]/ha per mm[ET]

 Transpiration during growth season         64.4 mm[EP]
   Dry Matter Productivity                  5.72 kg[DM]/m3[EP]            =   57.2 kg[DM]/ha per mm[EP]
   Yield Productivity                       2.50 kg[grain yield]/m3[EP]   =   25.0 kg[yield]/ha per mm[EP]

 Irrigation during growing season          120.0 mm[irrig]
   Dry Matter Productivity                  3.07 kg[DM]/m3[irrig]         =   30.7 kg[DM]/ha per mm[irrig]
   Yield Productivity                       1.34 kg[grain yield]/m3[irrig]=   13.4 kg[yield]/ha per mm[irrig]

 N applied during growing season           173.0 kg[N applied]/ha
   Dry Matter Productivity                  21.3 kg[DM]/kg[N applied]
   Yield Productivity                        9.3 kg[yield]/kg[N applied]

 N uptake during growing season             48.0 kg[N uptake]/ha
   Dry Matter Productivity                  76.8 kg[DM]/kg[N uptake]
   Yield Productivity                       33.6 kg[yield]/kg[N uptake]

--------------------------------------------------------------------------------------------------------------

          WHEAT YIELD :     1612 kg/ha    [Dry weight] 

**************************************************************************************************************
