$GROWTH ASPECTS OUTPUT FILE

*DSSAT Cropping System Model Ver. 4.8.2.000 -release  AUG 23, 2025 16:02:10

*RUN   1        : WW23_G-1                  CSCER048 CIOB2301    1
 MODEL          : CSCER048 - Wheat
 EXPERIMENT     : CIOB2301 WH ROOTS ANATOMY
 DATA PATH      : C:\DSSAT48\Wheat\
 TREATMENT  1   : WW23_G-1                  CSCER048
  
@YEAR DOY   DAS   DAP TMEAN TKILL  GSTD  L#SD PARID PARUD  AWAD  LAID  SAID  CAID  TWAD SDWAD  RWAD  CWAD  LWAD  SWAD  HWAD  HIAD CHWAD  EWAD RSWAD SNWPD SNWLD SNWSD  RS%D  H#AD  HWUD  T#AD  SLAD  RDPD  PTFD  SWXD WAVRD WUPRD  WFTD  WFPD  WFGD  NFTD  NFPD  NFGD NUPRD  TFPD  TFGD VRNFD DYLFD
 2022 327    83     0  17.6  -6.0  0.00  0.00  0.00  0.00   0.0  0.00 0.000  0.00    43    43     0     0     0     0     0  0.00     0     0     0     0     0     0   0.0     0     0   150   -99  0.04  0.00  19.7  99.9  1.00  0.00  0.00  0.00  0.00  0.00  0.00   0.0  0.00  0.00  0.50  0.00
 2022 328    84     1  16.4  -6.0  5.84  0.00  0.00  0.00   0.0  0.00 0.000  0.00    43    43     0     0     0     0     0  0.00     0     0     0     0     0     0   0.0     0     0   150   -99  0.04  0.00   7.2  99.9  1.00  0.00  0.00  0.00  0.00  0.00  0.00   0.0  0.00  0.00  0.50  0.00
 2022 329    85     2  17.4  -6.0  8.40  0.00  0.00  0.00   0.0  0.00 0.000  0.00    43    42     1     0     0     0     0  0.00     0     0     0     0     0     0   0.0     0     0   150   -99  0.06  0.00   4.0  99.9  1.00  0.00  0.00  0.00  0.00  0.00  0.00   0.0  0.00  0.00  0.50  0.00
 2022 330    86     3  18.0  -6.0 10.00  0.00  0.00  0.00   0.0  0.00 0.000  0.00    43    40     2     0     0     0     0  0.00     0     0     0     0     0 .0010   0.0     0     0   150   -99  0.08  0.00   2.9  99.9  1.00  0.00  0.00  0.00  0.00  0.00  0.00   2.0  0.00  0.00  0.50  0.00
 2022 331    87     4  16.3  -6.0 10.93  0.93  0.02  0.00   0.0  0.03 0.003  0.03    43    26     3    13     9     4     0  0.00     0     0     0     0     0 .0027   0.0     0     0   150   350  0.10  0.75   2.8  99.9  1.00  0.00  0.00  0.00  0.00  0.00  0.00   0.1  0.00  0.00  0.50  0.32
 2022 332    88     5  16.1  -6.0 11.85  1.85  0.04  0.32   0.6  0.05 0.005  0.05    43    18     4    21    14     7     0  0.00     0     0     0     0 0.130 .0052   0.8     0     0   150   347  0.12  0.67   2.9  42.7  0.15  1.00  0.85  0.88  0.01  0.01  0.01   0.1  0.00  0.00  0.50  0.32
 2022 333    89     6  18.1  -6.0 12.44  2.44  0.04  0.17   0.5  0.06 0.006  0.06    43    13     5    25    17     8     0  0.00     0     0     0     0 0.332 .0090   1.5     0     0   150   345  0.14  0.67   4.1  37.6  0.13  1.00  0.87  0.90  0.42  0.42  0.42   0.1  0.00  0.00  0.50  0.32
 2022 334    90     7  18.5  -6.0 12.97  2.97  0.05  0.18   0.6  0.06 0.006  0.07    43    10     6    27    18     9     0  0.00     0     0     1     0 0.578 .0138   2.2     0     0   150   344  0.16  0.68   5.3  41.3  0.18  1.00  0.82  0.86  0.53  0.53  0.53   0.3  0.00  0.00  0.50  0.32
 2022 335    91     8  19.2  -6.0 13.52  3.52  0.05  0.22   0.8  0.06 0.006  0.07    44     9     7    28    18    10     0  0.00     0     0     1     0 0.842 .0199   2.9     0     0   150   343  0.19  0.68   6.6  46.2  0.23  1.00  0.77  0.82  0.55  0.55  0.55   0.7  0.00  0.00  0.50  0.32
 2022 336    92     9  23.0  -6.0 14.17  4.17  0.05  0.24   0.9  0.06 0.006  0.07    44     9     7    29    19    10     0  0.00     0     0     1     0 1.113 .0278   3.5     0     0   150   342  0.22  0.68   8.2  54.6  0.23  1.00  0.77  0.82  0.51  0.51  0.51   1.1  0.00  0.20  0.50  0.32
 2022 337    93    10  23.0  -6.0 14.82  4.82  0.03  0.28   0.9  0.04 0.004  0.05    40     9     7    25    13    12     0  0.00     0     0     6     0 5.834 .0359  22.9     0     0   150   341  0.24  0.68   9.7  71.2  0.24  1.00  0.76  0.81  0.47  0.47  0.47   1.5  0.00  0.20  0.50  0.32
 2022 338    94    11  22.0  -6.0 15.45  5.45  0.03  0.45   1.0  0.04 0.004  0.04    40     9     7    24    12    12     0  0.00     0     0     6     0 6.984 .0439  25.8     0     0   150   339  0.27  0.70  11.3  99.9  0.37  1.00  0.63  0.72  0.43  0.43  0.43   2.0  0.00  0.13  0.50  0.33
 2022 339    95    12  22.2  -6.0 21.18  6.09  0.02  1.29   1.1  0.03 0.003  0.03    38     9     8    22     9    13     0  0.00     0     0     8     0 9.563 .0522  36.7     0     0   328   335  0.30  0.72  12.8  99.9  0.96  0.07  0.04  0.26  0.37  0.37  0.37   2.0  0.00  0.15  0.50  0.33
 2022 340    96    13  19.7  -6.0 22.33  6.65  0.02  1.46   0.7  0.03 0.003  0.03    37     9     8    21     8    13     0  0.00     0     0     9     0 11.29 .0596  43.1     0     0   499   331  0.32  0.73  15.9  99.9  1.79  0.00  0.00  0.00  0.32  0.32  0.32   2.0  0.00  0.00  0.50  0.33
 2022 341    97    14  20.0  -6.0 23.57  7.22  0.02  1.57   1.0  0.02 0.002  0.02    36     9     8    20     7    13     0  0.00     0     0    10     0 13.05 .0673  49.6     0     0   686   326  0.34  0.74  16.9  99.9  1.43  0.00  0.00  0.00  0.27  0.27  0.27   2.0  0.00  0.00  0.50  0.33
 2022 342    98    15  20.8  -6.0 24.58  7.81  0.02  1.33   1.5  0.02 0.003  0.03    37     9     8    21     7    13     0  0.00     0     0    10     0 13.57 .0755  45.9     0     0   836   320  0.36  0.74  17.3  99.9  0.78  0.43  0.22  0.40  0.21  0.21  0.21   2.0  0.00  0.05  0.50  0.33
 2022 343    99    16  18.0  -6.0 25.15  8.32  0.02  1.24   1.7  0.03 0.003  0.03    38     9     8    22     8    13     0  0.00     0     0     9     0 14.03 .0827  42.0     0     0   922   315  0.37  0.73  18.2  99.9  0.69  0.63  0.31  0.47  0.16  0.16  0.16   2.0  0.00  0.00  0.50  0.33
 2022 344   100    17  17.0  -6.0 25.54  8.81  0.02  1.20   1.9  0.03 0.003  0.03    40     9     9    23     9    13     0  0.00     0     0     8     0 14.34 .0899  37.5     0     0   980   310  0.39  0.73  19.0  99.9  0.63  0.73  0.37  0.51  0.12  0.12  0.12   2.0  0.00  0.00  0.50  0.33
 2022 345   101    18  16.2  -6.0 25.92  9.27  0.02  1.24   2.1  0.03 0.004  0.04    41     9     9    24    11    13     0  0.00     0     0     8     0 14.65 .0969  33.4     0     0  1037   307  0.40  0.73  19.7  99.9  0.64  0.72  0.36  0.51  0.09  0.09  0.09   1.7  0.00  0.00  0.50  0.33
 2022 346   102    19  16.1  -6.0 26.24  9.73  0.03  1.23   2.3  0.03 0.004  0.04    43     9     9    25    12    13     0  0.00     0     0     8     0 15.13 0.104  30.6     0     0  1086   303  0.41  0.73  20.5  99.9  0.62  0.76  0.38  0.52  0.07  0.07  0.07   1.1  0.00  0.00  0.50  0.33
 2022 347   103    20  15.1  -6.0 26.70 10.16  0.03  1.37   2.7  0.04 0.004  0.04    45     9    10    27    13    14     0  0.00     0     0     7     0 15.59 0.111  27.9     0     0  1155   299  0.42  0.74  65.9  99.9  0.68  0.64  0.32  0.48  0.06  0.06  0.06   1.1  0.00  0.00  0.50  0.33
 2022 348   104    21  15.2  -6.0 27.94 10.59  0.03  2.05   4.7  0.04 0.005  0.05    48     9    10    30    15    15     0  0.00     0     0     7     0 16.13 0.119  24.5     0     0  1341   294  0.43  0.76  48.9  99.9  3.30  0.00  0.00  0.00  0.04  0.04  0.04   2.0  0.00  0.00  0.50  0.33
 2022 349   105    22  14.6  -6.0 29.15 11.01  0.04  2.08   5.3  0.05 0.006  0.06    53     9    11    33    17    16     0  0.00     0     0     7     0 16.65 0.126  21.5     0     0  1522   290  0.44  0.77  34.5  99.9  3.32  0.00  0.00  0.00  0.03  0.03  0.03   2.0  0.00  0.00  0.49  0.33
 2022 350   106    23  12.5  -6.0 30.00 11.36  0.04  2.10   3.4  0.05 0.006  0.06    55     9    12    35    19    17     0  0.00     0     0     7     0 17.28 0.133  20.2     0     0  1678   287  0.45  0.77  28.5  99.9  3.11  0.00  0.00  0.00  0.02  0.02  0.02   2.0  0.00  0.00  0.41  0.33
 2022 351   107    24  14.9  -6.0 30.00 11.79  0.04  2.11   6.2  0.06 0.007  0.07    60     9    12    39    21    18     0  0.00     0     0     7     0 18.03 0.142  18.5     0     0  1866   283  0.47  0.77  26.7  99.9  1.63  0.00  0.00  0.00  0.02  0.02  0.02   0.9  0.00  0.00  0.41  0.33
 2022 352   108    25  15.5  -6.0 30.00 12.23  0.05  2.09   6.9  0.07 0.008  0.08    65     9    13    44    24    20     0  0.00     0     0     7     0 18.83 0.151  17.0     0     0  2058   280  0.48  0.77  27.0  99.9  1.44  0.00  0.00  0.00  0.03  0.03  0.03   0.9  0.00  0.00  0.41  0.33
 2022 353   109    26  14.8  -6.0 30.00 12.65  0.06  2.08   7.8  0.07 0.009  0.08    71     9    14    49    27    22     0  0.00     0     0     8     0 19.80 0.161  16.0     0     0  2240   276  0.49  0.77  27.5  99.9  1.25  0.00  0.00  0.04  0.03  0.03  0.03   0.9  0.00  0.00  0.40  0.33
 2022 354   110    27  16.6  -6.0 30.00 13.13  0.06  2.07   7.8  0.08 0.010  0.09    77     9    16    53    30    24     0  0.00     0     0     8     0 20.91 0.173  15.3     0     0  2445   273  0.50  0.77  28.1  99.9  1.27  0.00  0.00  0.02  0.04  0.04  0.04   1.1  0.00  0.00  0.40  0.33
 2022 355   111    28  15.2  -6.0 30.00 13.56  0.07  2.09   9.7  0.09 0.012  0.10    85     9    17    60    34    26     0  0.00     0     0     9     0 22.11 0.185  14.6     0     0  2635   269  0.51  0.77  28.7  99.9  1.13  0.00  0.00  0.13  0.03  0.03  0.03   0.9  0.00  0.00  0.40  0.33
 2022 356   112    29  15.3  -6.0 30.00 14.00  0.07  2.09  10.8  0.10 0.013  0.11    94     9    18    67    38    29     0  0.00     0     0     9     0 23.33 0.198  13.9     0     0  2825   266  0.52  0.77  29.2  99.9  1.08  0.00  0.00  0.17  0.03  0.03  0.03   0.9  0.00  0.00  0.40  0.33
 2022 357   113    30  15.9  -6.0 30.00 14.45  0.08  2.09  11.8  0.11 0.015  0.13   103     9    20    75    43    32     0  0.00     0     0    10     0 24.61 0.213  13.2     0     0  3000   263  0.54  0.77  29.7  99.9  1.05  0.00  0.00  0.19  0.03  0.03  0.03   0.9  0.00  0.00  0.40  0.33
 2022 358   114    31  16.2  -6.0 30.00 14.91  0.09  2.09  13.2  0.12 0.017  0.14   113     9    22    83    47    36     0  0.00     0     0    11     0 26.91 0.229  13.8     0     0  3000   260  0.55  0.77  30.3  99.9  1.02  0.00  0.00  0.21  0.03  0.03  0.03   0.9  0.00  0.00  0.40  0.33
 2022 359   115    32  17.8  -6.0 30.00 15.42  0.10  2.06  14.2  0.13 0.018  0.15   123     9    24    91    51    40     0  0.00     0     0    13     0 29.45 0.248  14.3     0     0  3000   257  0.56  0.77  30.9  99.9  0.99  0.02  0.01  0.24  0.03  0.03  0.03   1.1  0.00  0.00  0.47  0.33
 2022 360   116    33  17.0  -6.0 30.00 15.90  0.10  2.10  15.8  0.14 0.020  0.16   135     9    26   101    56    44     0  0.00     0     0    15     0 32.12 0.268  14.6     0     0  3000   254  0.58  0.78  31.4  99.9  1.00  0.00  0.00  0.23  0.02  0.02  0.02   1.1  0.00  0.00  0.47  0.33
 2022 361   117    34  17.5  -6.0 30.00 16.40  0.11  2.12  16.9  0.15 0.022  0.18   147     9    28   111    62    49     0  0.00     0     0    16     0 34.90 0.291  14.7     0     0  3000   251  0.59  0.78  32.0  99.9  1.02  0.00  0.00  0.22  0.01  0.01  0.01   1.1  0.00  0.00  0.50  0.33
 2022 362   118    35  16.6  -6.0 30.00 16.88  0.11  2.13  11.5  0.16 0.023  0.18   154     9    29   117    64    53     0  0.00     0     0    18     0 38.31 0.314  15.8     0     0  3000   248  0.60  0.78  32.6  99.9  1.68  0.00  0.00  0.00  0.01  0.01  0.01   2.0  0.00  0.00  0.50  0.33
 2022 363   119    36  17.2  -6.0 30.00 17.37  0.11  2.14   5.1  0.15 0.022  0.18   156     9    30   117    63    54     0  0.00     0     0    20     0 41.87 0.339  17.3     0     0  3000   247  0.61  0.78  33.5  99.9  4.00  0.00  0.00  0.00  0.00  0.00  0.00   2.0  0.00  0.00  0.50  0.33
 2022 364   120    37  18.6  -6.0 30.00 17.90  0.12  2.15  17.5  0.16 0.024  0.18   167     9    32   126    66    60     0  0.00     0     0    23     0 46.80 0.367  18.7     0     0  3000   243  0.63  0.78  34.1  99.9  1.12  0.00  0.00  0.14  0.00  0.00  0.00   1.5  0.00  0.00  0.50  0.33
 2022 365   121    38  17.8  -6.0 30.00 18.40  0.12  2.15  18.9  0.17 0.025  0.19   179     9    35   136    70    65     0  0.00     0     0    26     0 51.60 0.396  19.4     0     0  3000   239  0.64  0.78  34.6  99.9  1.10  0.00  0.00  0.15  0.00  0.00  0.00   1.8  0.00  0.00  0.50  0.33
 2023   1   122    39  16.6  -6.0 30.00 18.88  0.12  2.15  17.3  0.17 0.027  0.20   190     9    37   144    74    70     0  0.00     0     0    29     0 56.76 0.425  20.3     0     0  3000   235  0.65  0.78  35.0  99.9  1.32  0.00  0.00  0.00  0.00  0.00  0.00   2.0  0.00  0.00  0.50  0.33
 2023   2   123    40  15.1  -6.0 30.00 19.31  0.13  2.15  14.6  0.18 0.028  0.21   198     9    39   151    76    74     0  0.00     0     0    31     0 61.52 0.453  20.9     0     0  3000   233  0.66  0.78  35.5  99.9  1.68  0.00  0.00  0.00  0.00  0.00  0.00   2.0  0.00  0.00  0.50  0.33
 2023   3   124    41  13.8  -6.0 30.00 19.70  0.13  2.15  20.5  0.19 0.030  0.22   212     9    42   162    82    80     0  0.00     0     0    34     0 66.37 0.480  20.8     0     0  3000   229  0.67  0.78  73.9  99.9  1.25  0.00  0.00  0.04  0.00  0.00  0.00   1.6  0.00  0.00  0.46  0.33
 2023   4   125    42  16.3  -6.0 30.00 20.17  0.14  2.15  22.3  0.20 0.032  0.23   227     9    44   174    87    86     0  0.00     0     0    37     0 72.21 0.514  21.1     0     0  3000   225  0.68  0.78  56.7  99.9  3.00  0.00  0.00  0.00  0.00  0.00  0.00   2.0  0.00  0.00  0.46  0.33
 2023   5   126    43  17.6  -6.0 30.00 20.67  0.15  2.15  24.1  0.21 0.034  0.24   243     9    48   187    94    93     0  0.00     0     0    39     0 77.96 0.553  21.1     0     0  3000   221  0.69  0.78  47.0  99.9  2.99  0.00  0.00  0.00  0.00  0.00  0.00   2.0  0.00  0.00  0.49  0.33
 2023   6   127    44  18.3  -6.0 30.00 21.19  0.15  2.15  24.8  0.22 0.037  0.26   259     9    51   200   100   100     0  0.00     0     0    42     0 84.04 0.597  21.0     0     0  3000   218  0.70  0.79  43.5  98.0  2.32  0.00  0.00  0.00  0.00  0.00  0.00   2.0  0.00  0.00  0.49  0.33
 2023   7   128    45  17.7  -6.0 30.00 21.70  0.16  2.15  25.2  0.23 0.040  0.27   277     9    54   214   108   107     0  0.00     0     0    44     0 89.64 0.641  20.6     0     0  3000   214  0.72  0.79  43.4  98.9  2.29  0.00  0.00  0.00  0.00  0.00  0.00   2.0  0.00  0.00  0.49  0.33
 2023   8   129    46  17.3  -6.0 30.00 22.19  0.17  2.15  26.5  0.25 0.043  0.29   295     9    57   230   116   113     0  0.00     0     0    46     0 95.21 0.688  20.0     0     0  3000   211  0.73  0.79  43.7  95.7  2.22  0.00  0.00  0.00  0.00  0.00  0.00   2.0  0.00  0.00  0.49  0.33
 2023   9   130    47  16.6  -6.0 30.00 22.66  0.18  2.15  29.3  0.26 0.046  0.30   315     9    61   245   123   122     0  0.00     0     0    50     0 102.8 0.736  20.3     0     0  3000   207  0.74  0.79  43.9  87.6  2.05  0.00  0.00  0.00  0.00  0.00  0.00   1.8  0.00  0.00  0.49  0.33
 2023  10   131    48  17.2  -6.0 30.00 23.15  0.18  2.15  29.5  0.27 0.048  0.31   334     9    65   260   130   130     0  0.00     0     0    54     0 110.7 0.788  20.5     0     0  3000   204  0.75  0.79  44.1  86.5  2.04  0.00  0.00  0.00  0.00  0.00  0.00   2.0  0.00  0.00  0.49  0.32
 2023  11   132    49  17.9  -6.0 30.00 23.66  0.19  2.15  32.1  0.27 0.050  0.32   353     9    69   276   136   140     0  0.00     0     0    59     0 120.9 0.846  21.5     0     0  3000   200  0.76  0.79  44.3  78.7  1.87  0.00  0.00  0.00  0.00  0.00  0.00   2.0  0.00  0.00  0.50  0.32
 2023  12   133    50  18.4  -6.0 30.00 24.19  0.19  2.15  33.0  0.28 0.053  0.33   372     9    73   291   141   150     0  0.00     0     0    65     0 131.6 0.909  22.3     0     0  3000   197  0.77  0.79  44.6  77.4  1.83  0.00  0.00  0.00  0.00  0.00  0.00   2.0  0.00  0.00  0.50  0.32
 2023  13   134    51  16.6  -6.0 30.00 24.66  0.20  2.15  33.2  0.29 0.056  0.34   393     9    77   307   148   159     0  0.00     0     0    69     0 141.5 0.969  22.5     0     0  3000   193  0.78  0.79  44.7  78.8  1.83  0.00  0.00  0.00  0.00  0.00  0.00   2.0  0.00  0.00  0.50  0.32
 2023  14   135    52  17.6  -6.0 30.00 25.16  0.20  2.15  33.7  0.29 0.058  0.35   413     9    81   324   155   169     0  0.00     0     0    74     0 152.1 1.037  22.9     0     0  3000   190  0.80  0.79  44.9  76.5  1.76  0.00  0.00  0.00  0.00  0.00  0.00   2.0  0.00  0.00  0.50  0.32
 2023  15   136    53  16.9  -6.0 30.00 25.64  0.20  2.15  23.8  0.29 0.059  0.35   424     9    84   332   157   175     0  0.00     0     0    78     0 162.8 1.105  23.5     0     0  3000   187  0.81  0.79  45.3  99.9  2.58  0.00  0.00  0.00  0.00  0.00  0.00   2.0  0.00  0.00  0.50  0.32
 2023  16   137    54  17.0  -6.0 30.00 26.13  0.21  2.15  34.5  0.30 0.062  0.36   445     9    88   348   164   184     0  0.00     0     0    82     0 173.7 1.176  23.6     0     0  3000   184  0.82  0.79  45.4  79.1  1.76  0.00  0.00  0.00  0.00  0.00  0.00   2.0  0.00  0.00  0.50  0.32
 2023  17   138    55  14.1  -6.0 30.00 26.53  0.20  2.15  10.6  0.29 0.061  0.35   444     9    89   346   160   186     0  0.00     0     0    85     0 184.1 1.238  24.5     0     0  3000   183  0.83  0.79  46.2  99.9  6.10  0.00  0.00  0.00  0.00  0.00  0.00   2.0  0.00  0.00  0.48  0.32
 2023  18   139    56  13.8  -6.0 30.00 26.92  0.21  2.15  33.1  0.30 0.064  0.37   464     9    93   362   168   194     0  0.00     0     0    88     0 194.4 1.300  24.2     0     0  3000   180  0.84  0.79  46.2  88.2  1.93  0.00  0.00  0.00  0.00  0.00  0.00   2.0  0.00  0.00  0.44  0.32
 2023  19   140    57  14.2  -6.0 30.00 27.33  0.21  2.15  33.9  0.31 0.067  0.38   484     9    97   378   176   203     0  0.00     0     0    91     0 205.1 1.366  23.9     0     0  3000   178  0.85  0.79  46.3  85.6  1.86  0.00  0.00  0.00  0.00  0.00  0.00   2.0  0.00  0.00  0.41  0.32
 2023  20   141    58  13.8  -6.0 30.00 27.72  0.22  2.15  39.0  0.33 0.071  0.40   509     9   102   399   186   213     0  0.00     0     0    93     0 215.8 1.433  23.4     0     0  3000   176  0.85  0.80  94.3  99.9  1.63  0.00  0.00  0.00  0.00  0.00  0.00   2.0  0.00  0.00  0.37  0.32
 2023  21   142    59  14.1  -6.0 30.00 28.12  0.23  2.15  40.8  0.34 0.076  0.42   536     9   107   420   197   223     0  0.00     0     0    97     0 226.8 1.505  23.0     0     0  3000   174  0.86  0.80  77.1  99.9  4.44  0.00  0.00  0.00  0.00  0.00  0.00   2.0  0.00  0.00  0.35  0.31
 2023  22   143    60  14.1  -6.0 30.00 28.52  0.24  2.15  43.6  0.36 0.080  0.44   564     9   112   443   208   234     0  0.00     0     0   100     0 238.7 1.580  22.6     0     0  3000   173  0.87  0.80  62.9  89.2  4.46  0.00  0.00  0.00  0.00  0.00  0.00   2.0  0.00  0.00  0.32  0.31
 2023  23   144    61  12.6  -6.0 30.00 28.88  0.25  2.15  38.5  0.38 0.084  0.46   588     9   117   463   219   244     0  0.00     0     0   102     0 249.5 1.651  22.1     0     0  3000   172  0.88  0.80  57.4  97.5  4.47  0.00  0.00  0.00  0.00  0.00  0.00   2.0  0.00  0.00  0.24  0.31
 2023  24   145    62  13.1  -6.0 30.00 29.25  0.26  2.15  47.4  0.40 0.090  0.49   621     9   122   489   234   256     0  0.00     0     0   105     0 260.7 1.727  21.4     0     0  3000   170  0.89  0.80  56.6  77.8  3.77  0.00  0.00  0.00  0.00  0.00  0.00   2.0  0.00  0.00  0.18  0.31
 2023  25   146    63  14.5  -6.0 30.00 29.67  0.28  2.15  50.1  0.42 0.096  0.52   655     9   128   518   250   268     0  0.00     0     0   108     0 272.1 1.816  20.8     0     0  3000   169  0.90  0.80  56.4  71.0  3.50  0.00  0.00  0.00  0.00  0.00  0.00   2.0  0.00  0.00  0.16  0.31
 2023  26   147    64  15.7  -6.0 30.00 30.11  0.30  2.15  48.6  0.47 0.107  0.58   699     9   134   556   280   276     0  0.00     0     0    99     0 272.9 1.917  17.9     0     0  3000   169  0.91  0.80  56.2  71.9  3.51  0.00  0.00  0.00  0.00  0.00  0.00   2.0  0.00  0.00  0.00  0.00
 2023  27   148    65  12.1  -6.0 30.00 30.46  0.33  2.15  42.6  0.52 0.116  0.63   737     9   139   590   307   282     0  0.00     0     0    92     0 273.7 1.998  15.6     0     0  3000   168  0.92  0.80  56.1  87.5  4.22  0.00  0.00  0.00  0.00  0.00  0.00   2.0  0.00  0.00  0.00  0.00
 2023  28   149    66  15.6  -6.0 30.00 30.90  0.35  2.15  51.0  0.56 0.127  0.69   783     9   145   630   337   293     0  0.00     0     0    86     0 274.7 2.107  13.7     0     0  3000   167  0.93  0.81  55.9  67.4  3.24  0.00  0.00  0.00  0.00  0.00  0.00   1.9  0.00  0.00  0.00  0.00
 2023  29   150    67  14.4  -6.0 30.00 31.31  0.38  2.15  66.4  0.62 0.140  0.76   843     9   152   682   374   309     0  0.00     0     0    82     0 275.6 2.211  12.0     0     0  3000   166  0.94  0.81  55.5  52.6  2.54  0.00  0.00  0.00  0.00  0.00  0.00   1.6  0.00  0.00  0.00  0.00
 2023  30   151    68  14.6  -6.0 30.17 31.73  0.40  2.15  64.0  0.68 0.153  0.83   902     9   160   733   408   325     0  0.00     0     0    78     0 276.5 2.322  10.6     0     0  3000   165  0.95  0.81  55.1  53.9  2.55  0.00  0.00  0.00  0.00  0.00  0.00   1.8  0.00  0.00  0.00  0.00
 2023  31   152    69  14.5  -6.0 30.86 32.14  0.43  2.15  70.0  0.73 0.167  0.90   965     9   167   789   445   345     0  0.00     0     0    75     0 277.4 2.438   9.5     0     0  3000   165  0.96  0.81  54.6  49.0  2.29  0.00  0.00  0.00  0.00  0.00  0.00   1.8  0.00  0.00  0.00  0.00
 2023  32   153    70  13.4  -6.0 31.49 32.52  0.45  2.15  55.6  0.78 0.178  0.96  1016     9   173   834   474   360     0  0.00     0     0    72     0 278.2 2.550   8.7     0     0  3000   164  0.96  0.82  54.4  63.6  2.94  0.00  0.00  0.00  0.00  0.00  0.00   2.0  0.00  0.00  0.00  0.00
 2023  33   154    71  15.9  -6.0 32.25 32.97  0.47  2.15  79.8  0.84 0.193  1.03  1089     9   182   898   513   385     0  0.00     0     0    71     0 279.2 2.687   8.0     0     0  3000   164  0.98  0.82  53.8  41.2  1.91  0.00  0.00  0.00  0.00  0.00  0.00   1.7  0.00  0.00  0.00  0.00
 2023  34   155    72  16.9  -6.0 33.05 33.45  0.50  2.15  83.8  0.90 0.209  1.11  1165     9   191   966   554   412     0  0.00     0     0    72     0 280.3 2.841   7.4     0     0  3000   163  0.99  0.82  92.2  64.9  1.74  0.00  0.00  0.00  0.00  0.00  0.00   1.7  0.00  0.00  0.00  0.00
 2023  35   156    73  16.9  -6.0 33.85 33.93  0.52  2.15  91.4  0.97 0.226  1.19  1249     9   200  1040   596   444     0  0.00     0     0    73     0 281.4 3.002   7.0     0     0  3000   162  1.00  0.82  75.1  46.5  3.48  0.00  0.00  0.00  0.00  0.00  0.00   2.0  0.00  0.00  0.00  0.00
 2023  36   157    74  18.1  -6.0 34.72 34.45  0.55  2.15  95.9  1.03 0.244  1.28  1337     9   210  1118   640   479     0  0.00     0     0    75     0 282.5 3.184   6.7     0     0  3000   162  1.01  0.83  68.0  39.9  3.46  0.00  0.00  0.00  0.00  0.00  0.00   2.0  0.00  0.00  0.00  0.00
 2023  37   158    75  16.7  -6.0 35.51 34.93  0.57  2.15  96.1  1.10 0.262  1.36  1425     9   220  1197   683   515     0  0.00     0     0    77     0 283.6 3.359   6.5     0     0  3000   161  1.02  0.83  65.3  40.0  3.32  0.00  0.00  0.00  0.00  0.00  0.00   2.0  0.00  0.00  0.00  0.00
 2023  38   159    76  16.2  -6.0 36.29 35.39  0.59  2.15 108.5  1.17 0.283  1.45  1525     9   230  1287   729   557     0  0.00     0     0    81     0 284.6 3.537   6.3     0     0  3000   161  1.03  0.83  63.6  35.2  2.87  0.00  0.00  0.00  0.00  0.00  0.00   2.0  0.00  0.00  0.00  0.00
 2023  39   160    77  18.1  -6.0 37.15 35.91  0.61  2.15 116.1  1.24 0.304  1.54  1633     9   242  1382   778   604     0  0.00     0     0    86     0 285.8 3.746   6.2     0     0  2898   159  1.04  0.84  62.5  30.7  2.44  0.00  0.00  0.00  0.00  0.00  0.00   2.0  0.00  0.00  0.00  0.00
 2023  40   161    78  15.1  -6.0 37.87 36.34  0.63  2.15 121.4  1.31 0.327  1.63  1745     9   253  1483   828   655     0  0.00     0     0    92     0 286.8 3.929   6.2     0     0  2817   158  1.05  0.84  61.1  30.5  2.33  0.00  0.00  0.00  0.00  0.00  0.00   2.0  0.00  0.00  0.00  0.00
 2023  41   162    79  17.1  -6.0 38.69 36.82  0.65  2.15 110.4  1.37 0.347  1.71  1847     9   263  1575   873   702     0  0.00     0     0    96     0 287.9 4.146   6.1     0     0  2727   156  1.06  0.84  60.1  31.6  2.32  0.00  0.00  0.00  0.00  0.00  0.00   2.0  0.00  0.00  0.00  0.00
 2023  42   163    80  14.0  -6.0 39.35 37.22  0.65  2.15  41.0  1.39 0.356  1.75  1884     9   267  1609   895   714     0  0.00     0     0    92     0 288.8 4.330   5.7     0     0  2656   155  1.07  0.85  60.1  92.3  6.03  0.00  0.00  0.00  0.00  0.00  0.00   2.0  0.00  0.00  0.00  0.00
 2023  43   164    81  15.7  -6.0 40.11 37.67  0.67  2.15 116.5  1.45 0.378  1.83  1993     9   277  1707   940   767     0  0.00     0     0    99     0 289.8 4.540   5.8     0     0  2579   154  1.08  0.85  58.9  30.6  1.95  0.00  0.00  0.00  0.00  0.00  0.00   2.0  0.00  0.00  0.00  0.00
 2023  44   165    82  13.9  -6.0 40.80 37.67  0.66  2.64  99.1  1.43 0.391  1.82  2086     9   286  1791   936   851     0  0.00     0     0   128     4 289.8 4.733   7.2     0     0  2513   153  1.09  0.85  58.3  46.0  2.65  0.00  0.00  0.00  0.00  0.00  0.00   2.0  0.00  0.00  0.00  0.00
 2023  45   166    83  13.7  -6.0 41.49 37.67  0.66  2.64 146.8  1.41 0.411  1.82  2224     9   299  1916   931   976     0  0.00     0     0   170     9 289.8 4.929   8.9     0     0  2450   152  1.10  0.85  57.1  30.1  1.66  0.00  0.00  0.00  0.00  0.00  0.00   2.0  0.00  0.00  0.00  0.00
 2023  46   167    84  14.2  -6.0 42.19 37.67  0.66  2.64 150.2  1.40 0.431  1.83  2365     9   311  2045   926  1105     0  0.00     0     0   213    13 289.8 5.140  10.5     0     0  2387   151  1.11  0.86  56.7  29.3  1.49  0.00  0.00  0.00  0.00  0.00  0.00   2.0  0.00  0.00  0.00  0.00
 2023  47   168    85  14.1  -6.0 42.90 37.67  0.65  2.64 164.7  1.38 0.454  1.83  2520     9   325  2187   922  1248     0  0.00     0     0   261    18 289.8 5.360  12.0     0     0  2325   150  1.12  0.86  54.7  25.6  1.25  0.00  0.00  0.04  0.00  0.00  0.00   2.0  0.00  0.00  0.00  0.00
 2023  48   169    86  12.8  -6.0 43.54 37.67  0.65  2.64 117.9  1.36 0.470  1.83  2632     9   334  2289   917  1350     0  0.00     0     0   295    22 289.8 5.568  13.0     0     0  2271   149  1.13  0.86  98.5  65.5  1.60  0.00  0.00  0.00  0.00  0.00  0.00   2.0  0.00  0.00  0.00  0.00
 2023  49   170    87  17.4  -6.0 44.41 37.67  0.64  2.64 104.4  1.34 0.483  1.82  2730     9   342  2379   911  1441     0  0.00     0     0   328    27 289.8 5.859  13.9     0     0  2199   147  1.14  0.87 102.3  69.6  6.68  0.00  0.00  0.00  0.00  0.00  0.00   2.0  0.00  0.00  0.00  0.00
 2023  50   171    88  18.8  -6.0 45.35 37.67  0.63  2.64  90.7  1.32 0.494  1.81  2816     9   349  2458   904  1521     0  0.00     0     0   358    33 289.8 6.181  14.8     0     0  2125   146  1.15  0.87  86.9  65.9  7.64  0.00  0.00  0.00  0.00  0.00  0.00   2.0  0.00  0.00  0.00  0.00
 2023  51   172    89  18.3  -6.0 46.27 37.67  0.63  2.64 110.8  1.30 0.508  1.81  2921     9   357  2556   897  1619     0  0.00     0     0   393    39 289.8 6.501  15.6     0     0  2055   144  1.16  0.88  81.6  51.5  6.48  0.00  0.00  0.00  0.00  0.00  0.00   2.0  0.00  0.00  0.00  0.00
 2023  52   173    90  16.3  -6.0 47.08 37.67  0.62  2.64 101.4  1.28 0.522  1.80  3017     9   364  2645   892  1708     0  0.00     0     0   425    45 289.8 6.791  16.4     0     0  1995   143  1.17  0.88  80.4  58.8  7.22  0.00  0.00  0.00  0.00  0.00  0.00   2.0  0.00  0.00  0.00  0.00
 2023  53   174    91  15.3  -6.0 47.85 37.67  0.62  2.64 165.6  1.26 0.545  1.80  3175     9   375  2792   886  1855     0  0.00     0     0   474    50 289.8 7.071  17.3     0     0  1940   142  1.18  0.89  77.3  35.4  4.45  0.00  0.00  0.00  0.00  0.00  0.00   2.0  0.00  0.00  0.00  0.00
 2023  54   175    92  16.1  -6.0 48.66 37.67  0.61  2.64 165.0  1.24 0.568  1.81  3332     9   386  2938   880  2003     0  0.00     0     0   524    55 289.8 7.373  18.2     0     0  1885   141  1.19  0.89  75.3  33.5  4.05  0.00  0.00  0.00  0.00  0.00  0.00   2.0  0.00  0.00  0.00  0.00
 2023  55   176    93  13.1  -6.0 49.31 37.67  0.61  2.64 105.3  1.23 0.583  1.81  3433     9   392  3032   876  2054     0  0.00    43    43   556    60 289.8 7.627  18.7     0     0  1841   140  1.20  0.89  74.5  55.6  6.51  0.00  0.00  0.00  0.00  0.00  0.00   2.0  0.00  0.00  0.00  0.00
 2023  56   177    94  15.6  -6.0 50.44 37.67  0.60  2.64 102.9  1.21 0.596  1.80  3531     9   398  3125   869  2092     0  0.00    98    85   589    65 289.8 7.934  19.3     0     0  1790   139  1.21  0.90  73.5  53.4  6.22  0.00  0.00  0.00  0.00  0.00  0.00   2.0  0.00  0.00  0.00  0.00
 2023  57   178    95  17.0  -6.0 54.36 37.67  0.60  2.64 165.7  1.19 0.618  1.81  3690     9   408  3274   866  2160     0  0.00   180   153   638    69 289.8 8.271  19.9     0     0  1737   138  1.21  0.90  71.2  31.5  3.54  0.00  0.00  0.00  0.00  0.00  0.00   2.0  0.00  0.00  0.00  0.00
 2023  58   179    96  16.0  -6.0 58.05 37.67  0.59  2.64 164.4  1.18 0.640  1.82  3848     9   416  3424   862  2218     0  0.00   271   221   686    72 289.8 8.597  20.5     0     0  1688   137  1.21  0.91  68.8  31.0  3.10  0.00  0.00  0.00  0.00  0.00  0.00   2.0  0.00  0.00  0.00  0.00
 2023  59   180    97  16.1  -6.0 65.90 37.67  0.59  2.64 144.4  1.16 0.659  1.82  3988     9   422  3557   859  2267     0  0.00   356   282   730    76 289.8 8.932  21.0     0     0  1641   135  1.21  0.92  66.8  34.1  3.07  0.00  0.00  0.00  0.00  0.00  0.00   2.0  0.00  0.00  0.00  0.00
 2023  60   181    98  12.6  -6.0 70.36 37.67  0.59  2.64  49.1  1.15 0.664  1.82  4036     9   424  3603   857  2271     0  0.00   398   303   746    78 289.8 9.199  21.2     0     0  1606   135  1.21  0.94  66.1  99.9  8.74  0.00  0.00  0.00  0.00  0.00  0.00   2.0  0.00  0.00  0.00  0.00
 2023  61   182    99  14.6  -6.0 71.08 37.67  0.58  2.64 167.2  1.14 0.688  1.83  4199     9   429  3761   853  2344     5  0.00   478   379   792    82 289.8 9.509  21.6 14523 .0000  1565   134  1.21  0.94  63.9  29.7  2.36  0.00  0.00  0.00  0.00  0.00  0.00   2.0  0.00  0.00  0.00  0.00
 2023  62   183   100  14.9  -6.0 71.81 37.67  0.58  2.64 169.9  1.13 0.713  1.84  4365     9   433  3923   850  2394    19  0.00   575   467   830    85 289.8 9.829  21.7 14523 .0001  1525   133  1.21  0.95  61.6  27.6  1.97  0.00  0.00  0.00  0.00  0.00  0.00   2.0  0.00  0.00  0.00  0.00
 2023  63   184   101  14.5  -6.0 72.52 37.67  0.57  2.64 169.5  1.12 0.738  1.85  4532     9   437  4087   847  2438    41  0.01   673   564   860    88 289.8 10.14  21.7 14523 .0003  1488   132  1.21  0.96  59.3  26.5  1.69  0.00  0.00  0.00  0.00  0.00  0.00   2.0  0.00  0.00  0.00  0.00
 2023  64   185   102  15.5  -6.0 73.28 37.67  0.57  2.64 170.6  1.10 0.764  1.87  4701     9   439  4253   843  2474    77  0.02   768   675   877    92 289.8 10.48  21.5 14523 .0005  1449   131  1.21  0.97  56.9  24.6  1.41  0.00  0.00  0.00  0.00  0.00  0.00   2.0  0.00  0.00  0.00  0.00
 2023  65   186   103  16.9  -6.0 74.11 37.67  0.56  2.64 163.3  1.09 0.760  1.85  4862     9   441  4413   839  2526   130  0.03   823   728   989    95 289.8 10.85  23.6 14523 .0009  1408   130  1.21  0.98  54.6  24.1  1.23  0.00  0.00  0.05  0.00  0.00  0.00   2.0  0.00  0.00  0.00  0.00
 2023  66   187   104  16.9  -6.0 74.94 37.67  0.56  2.64 126.1  1.07 0.756  1.83  4987     9   442  4537   835  2567   195  0.04   840   793  1051    99 289.8 11.22  24.8 14523 .0013  1368   129  1.21  0.98 102.5  58.7  1.37  0.00  0.00  0.00  0.00  0.00  0.00   2.0  0.00  0.00  0.00  0.00
 2023  67   188   105  18.4  -6.0 75.84 37.67  0.55  2.64 146.6  1.06 0.752  1.81  5132     9   443  4680   831  2608   281  0.06   856   880  1112   103 289.8 11.63  25.9 14523 .0019  1326   128  1.21  0.98  89.4  41.5  5.69  0.00  0.00  0.00  0.00  0.00  0.00   2.0  0.00  0.00  0.00  0.00
 2023  68   189   106  19.7  -6.0 76.81 37.67  0.55  2.64 158.4  1.04 0.748  1.79  5289     9   445  4836   826  2641   390  0.08   870   989  1163   108 289.8 12.07  26.8 14523 .0027  1283   126  1.21  0.98  81.7  34.7  5.54  0.00  0.00  0.00  0.00  0.00  0.00   2.0  0.00  0.00  0.00  0.00
 2023  69   190   107  19.4  -6.0 77.76 37.67  0.54  2.64 163.4  1.03 0.744  1.77  5450     9   446  4996   821  2666   516  0.10   881  1114  1202   113 289.8 12.50  27.5 14523 .0036  1243   125  1.21  0.98  78.1  32.6  5.02  0.00  0.00  0.00  0.00  0.00  0.00   2.0  0.00  0.00  0.00  0.00
 2023  70   191   108  19.6  -6.0 78.72 37.67  0.54  2.64 159.6  1.01 0.739  1.75  5608     9   448  5152   816  2674   660  0.13   885  1258  1219   117 289.8 12.93  27.9 14523 .0045  1203   124  1.21  0.98  75.6  32.3  4.92  0.00  0.00  0.00  0.00  0.00  0.00   2.0  0.00  0.00  0.00  0.00
 2023  71   192   109  22.8  -6.0 79.84 37.67  0.53  2.64 157.3  0.99 0.735  1.73  5764     9   449  5306   810  2649   848  0.16   876  1447  1190   122 289.8 13.44  27.5 14523 .0058  1159   123  1.21  0.98  73.0  30.1  4.38  0.00  0.00  0.00  0.00  0.00  0.00   2.0  0.00  0.18  0.00  0.00
 2023  72   193   110  22.0  -6.0 80.32 37.67  0.53  2.64 159.0  0.98 0.730  1.71  5921     9   450  5462   804  2613  1054  0.19   863  1652  1146   128 289.8 13.94  26.8 14523 .0073  1119   121  1.21  0.98  70.5  29.3  3.95  0.00  0.00  0.00  0.00  0.00  0.00   2.0  0.00  0.13  0.00  0.00
 2023  73   194   111  19.8  -6.0 80.66 37.67  0.52  2.64 161.3  0.97 0.726  1.69  6081     9   452  5620   804  2589  1244  0.22   854  1843  1115   129 289.8 14.38  26.3 14523 .0086  1084   120  1.21  0.98  68.1  28.9  3.34  0.00  0.00  0.00  0.00  0.00  0.00   2.0  0.00  0.00  0.00  0.00
 2023  74   195   112  19.5  -6.0 80.99 37.67  0.52  2.65 140.9  0.96 0.723  1.68  6220     9   453  5758   804  2552  1432  0.25   840  2030  1067   131 289.8 14.82  25.4 14523 .0099  1051   119  1.21  0.98  65.9  32.3  3.21  0.00  0.00  0.00  0.00  0.00  0.00   2.0  0.00  0.00  0.00  0.00
 2023  75   196   113  20.5  -6.0 81.34 37.67  0.52  2.65 128.4  0.95 0.719  1.67  6347     9   454  5884   803  2500  1630  0.28   819  2228   997   133 289.8 15.29  24.2 14523 .0112  1017   118  1.21  0.98  64.0  34.0  2.99  0.00  0.00  0.00  0.00  0.00  0.00   2.0  0.00  0.03  0.00  0.00
 2023  76   197   114  20.0  -6.0 81.68 37.67  0.51  2.65  54.5  0.94 0.715  1.65  6401     9   454  5938   803  2398  1823  0.31   780  2421   859   134 289.8 15.74  21.6 14523 .0126   986   117  1.21  0.98 115.4  99.9  6.27  0.00  0.00  0.00  0.00  0.00  0.00   2.0  0.00  0.00  0.00  0.00
 2023  77   198   115  19.0  -6.0 82.01 37.67  0.51  2.65 147.7  0.93 0.712  1.64  6547     9   456  6082   802  2369  2006  0.33   769  2605   822   136 289.8 16.18  20.9 14523 .0138   958   116  1.20  0.98 124.4  57.0  6.12  0.00  0.00  0.00  0.00  0.00  0.00   2.0  0.00  0.00  0.00  0.00
 2023  78   199   116  19.0  -6.0 82.33 37.67  0.51  2.65 154.1  0.92 0.708  1.63  6699     9   457  6233   802  2345  2190  0.35   759  2788   791   138 289.8 16.61  20.2 14523 .0151   930   115  1.20  0.98 105.0  46.2  5.89  0.00  0.00  0.00  0.00  0.00  0.00   2.0  0.00  0.00  0.00  0.00
 2023  79   200   117  19.0  -6.0 82.66 37.67  0.50  2.65 151.8  0.91 0.705  1.62  6849     9   458  6382   801  2319  2374  0.37   749  2972   758   140 289.8 17.04  19.6 14523 .0163   904   114  1.20  0.98  87.7  40.2  5.34  0.00  0.00  0.00  0.00  0.00  0.00   2.0  0.00  0.00  0.00  0.00
 2023  80   201   118  20.1  -6.0 83.00 37.67  0.50  2.65 149.5  0.91 0.701  1.61  6997     9   460  6529   800  2284  2568  0.39   736  3166   712   141 289.8 17.51  18.6 14523 .0177   877   113  1.20  0.98  80.9  37.4  5.75  0.00  0.00  0.00  0.00  0.00  0.00   2.0  0.00  0.01  0.00  0.00
 2023  81   202   119  20.2  -6.0 83.35 37.67  0.50  2.65 148.5  0.90 0.698  1.59  7144     9   461  6674   800  2247  2763  0.41   722  3361   664   143 289.8 17.97  17.6 14523 .0190   851   112  1.20  0.98  78.5  36.0  5.70  0.00  0.00  0.00  0.00  0.00  0.00   2.0  0.00  0.02  0.00  0.00
 2023  82   203   120  19.6  -6.0 83.68 37.67  0.49  2.65 153.4  0.89 0.695  1.58  7296     9   463  6825   799  2218  2952  0.43   711  3550   628   145 289.8 18.42  16.8 14523 .0203   827   111  1.20  0.98  76.2  34.6  5.39  0.00  0.00  0.00  0.00  0.00  0.00   2.0  0.00  0.00  0.00  0.00
 2023  83   204   121  17.6  -6.0 83.98 37.67  0.49  2.65 162.9  0.88 0.692  1.57  7457     9   464  6984   799  2210  3121  0.45   708  3719   619   146 289.8 18.83  16.7 14523 .0215   806   110  1.20  0.98  73.8  32.8  4.93  0.00  0.00  0.00  0.00  0.00  0.00   2.0  0.00  0.00  0.00  0.00
 2023  84   205   122  17.1  -6.0 84.27 37.67  0.49  2.65 155.4  0.87 0.689  1.56  7611     9   466  7137   798  2201  3286  0.46   704  3884   608   148 289.8 19.23  16.4 14523 .0226   787   109  1.20  0.98  71.6  33.7  4.92  0.00  0.00  0.00  0.00  0.00  0.00   2.0  0.00  0.00  0.00  0.00
 2023  85   206   123  17.5  -6.0 84.57 37.67  0.48  2.65 155.9  0.87 0.687  1.55  7765     9   467  7289   797  2188  3455  0.47   699  4053   594   150 289.8 19.63  16.1 14523 .0238   768   109  1.20  0.98  69.3  32.0  4.12  0.00  0.00  0.00  0.00  0.00  0.00   2.0  0.00  0.00  0.00  0.00
 2023  86   207   124  17.5  -6.0 84.87 37.67  0.48  2.65 120.4  0.86 0.684  1.54  7884     9   468  7407   797  2151  3624  0.49   685  4222   544   151 289.8 20.04  15.0 14523 .0250   749   108  1.20  0.98 102.6  61.3  4.51  0.00  0.00  0.00  0.00  0.00  0.00   2.0  0.00  0.00  0.00  0.00
 2023  87   208   125  18.8  -6.0 85.19 37.67  0.48  2.65 143.9  0.85 0.681  1.53  8026     9   469  7548   796  2121  3805  0.50   673  4403   506   153 289.8 20.48  14.1 14523 .0262   730   107  1.20  0.98  86.5  40.8  6.50  0.00  0.00  0.00  0.00  0.00  0.00   2.0  0.00  0.00  0.00  0.00
 2023  88   209   126  18.0  -6.0 85.50 37.67  0.48  2.65 148.0  0.84 0.678  1.52  8173     9   471  7693   795  2100  3978  0.52   665  4576   479   155 289.8 20.91  13.5 14523 .0274   712   106  1.20  0.98  80.2  37.9  6.04  0.00  0.00  0.00  0.00  0.00  0.00   2.0  0.00  0.00  0.00  0.00
 2023  89   210   127  19.3  -6.0 85.83 37.67  0.46  2.65 145.3  0.80 0.676  1.48  8316     9   472  7836   760  2073  4164  0.53   662  4763   458   177 289.8 21.36  13.1 14523 .0287   694   105  1.20  0.98  77.9  37.1  6.04  0.00  0.00  0.00  0.00  0.00  0.00   2.0  0.00  0.00  0.00  0.00
 2023  90   211   128  18.7  -6.0 86.15 37.67  0.44  2.65 154.4  0.76 0.673  1.43  8469     9   473  7987   722  2057  4345  0.54   663  4943   453   200 289.8 21.80  13.1 14523 .0299   677   105  1.20  0.98  75.6  34.6  5.55  0.00  0.00  0.00  0.00  0.00  0.00   2.0  0.00  0.00  0.00  0.00
 2023  91   212   129  19.4  -6.0 86.48 37.67  0.42  2.65 143.8  0.71 0.670  1.38  8611     9   475  8128   685  2030  4531  0.56   659  5129   430   223 289.8 22.26  12.7 14523 .0312   660   104  1.20  0.98  73.4  35.3  5.46  0.00  0.00  0.00  0.00  0.00  0.00   2.0  0.00  0.00  0.00  0.00
 2023  92   213   130  20.8  -6.0 86.83 37.67  0.40  2.65 134.1  0.66 0.667  1.33  8744     9   476  8259   646  1985  4732  0.57   649  5330   384   248 289.8 22.75  11.7 14523 .0326   642   103  1.20  0.98  71.3  35.9  5.23  0.00  0.00  0.00  0.00  0.00  0.00   1.8  0.00  0.06  0.00  0.00
 2023  93   214   131  18.6  -6.0 87.15 37.67  0.38  2.65 121.6  0.62 0.665  1.28  8864     9   477  8378   603  1947  4912  0.59   643  5510   350   274 289.8 23.20  11.0 14523 .0338   627   102  1.20  0.98  69.5  40.1  5.19  0.00  0.00  0.00  0.00  0.00  0.00   2.0  0.00  0.00  0.00  0.00
 2023  94   215   132  17.1  -6.0 87.44 37.67  0.35  2.65 126.1  0.57 0.663  1.24  8988     9   478  8502   565  1923  5077  0.60   640  5675   332   297 289.8 23.60  10.6 14523 .0350   614   101  1.20  0.98  67.7  39.6  4.60  0.00  0.00  0.00  0.00  0.00  0.00   2.0  0.00  0.00  0.00  0.00
 2023  95   216   133  15.9  -6.0 87.71 37.67  0.33  2.65 117.1  0.53 0.661  1.19  9104     9   479  8617   529  1902  5228  0.61   639  5826   317   319 289.8 23.98  10.3 14523 .0360   602   101  1.20  0.98  66.0  42.6  4.47  0.00  0.00  0.00  0.00  0.00  0.00   2.0  0.00  0.00  0.00  0.00
 2023  96   217   134  15.9  -6.0 87.99 37.67  0.32  2.65 115.9  0.50 0.659  1.16  9219     9   480  8730   496  1879  5380  0.62   636  5979   298   339 289.8 24.36   9.9 14523 .0370   590   100  1.20  0.98  64.4  41.4  3.98  0.00  0.00  0.00  0.00  0.00  0.00   1.9  0.00  0.00  0.00  0.00
 2023  97   218   135  17.3  -6.0 88.28 37.67  0.29  2.65 109.4  0.45 0.656  1.10  9327     9   481  8838   449  1843  5547  0.63   632  6145   267   367 289.8 24.78   9.1 14523 .0382   578    99  1.20  0.98  62.8  41.6  3.66  0.00  0.00  0.00  0.00  0.00  0.00   1.5  0.00  0.00  0.00  0.00
 2023  98   219   136  19.2  -6.0 88.61 37.67  0.26  2.65 101.2  0.39 0.651  1.05  9427     9   482  8937   399  1778  5732  0.64   620  6330   210   407 289.8 25.24   7.5 14523 .0395   565    99  1.20  0.98  61.2  42.2  3.41  0.00  0.00  0.00  0.00  0.00  0.00   1.4  0.00  0.00  0.00  0.00
 2023  99   220   137  20.0  -6.0 88.95 37.67  0.23  2.65  91.7  0.34 0.646  0.99  9517     9   482  9027   347  1701  5925  0.66   605  6523   138   449 289.8 25.72   5.2 14523 .0408   551    98  1.20  0.98  59.8  44.7  3.34  0.00  0.00  0.00  0.00  0.00  0.00   1.3  0.00  0.00  0.00  0.00
 2023 100   221   138  19.5  -6.0 89.28 37.67  0.20  2.65  74.9  0.29 0.641  0.93  9591     9   483  9100   282  1615  6113  0.67   598  6711    55   491 289.8 26.19   2.2 14523 .0421   539   101  1.20  0.98  58.7  54.2  3.75  0.00  0.00  0.00  0.00  0.00  0.00   1.2  0.00  0.00  0.00  0.00
 2023 101   222   139  21.5  -6.0 89.65 37.67  0.16  2.65  66.6  0.23 0.636  0.87  9657     9   483  9165   218  1584  6233  0.68   598  6831    30   533 289.8 26.71   1.2 14523 .0429   526   108  1.20  0.98  57.6  57.9  3.77  0.00  0.00  0.00  0.00  0.00  0.00   1.2  0.00  0.10  0.00  0.00
 2023 102   223   140  20.7  -6.0 90.01 37.67  0.13  2.65  55.3  0.18 0.630  0.81  9711     9   483  9219   177  1552  6317  0.69   598  6915    32   576 289.8 27.21   1.4 14523 .0435   513   102  1.20  0.98  56.7  70.4  4.33  0.00  0.00  0.00  0.00  0.00  0.00   1.8  0.00  0.04  0.00  0.00

*DSSAT Cropping System Model Ver. 4.8.2.000 -release  AUG 23, 2025 16:02:10

*RUN   2        : WW23_G-2                  CSCER048 CIOB2301    2
 MODEL          : CSCER048 - Wheat
 EXPERIMENT     : CIOB2301 WH ROOTS ANATOMY
 DATA PATH      : C:\DSSAT48\Wheat\
 TREATMENT  2   : WW23_G-2                  CSCER048
  
@YEAR DOY   DAS   DAP TMEAN TKILL  GSTD  L#SD PARID PARUD  AWAD  LAID  SAID  CAID  TWAD SDWAD  RWAD  CWAD  LWAD  SWAD  HWAD  HIAD CHWAD  EWAD RSWAD SNWPD SNWLD SNWSD  RS%D  H#AD  HWUD  T#AD  SLAD  RDPD  PTFD  SWXD WAVRD WUPRD  WFTD  WFPD  WFGD  NFTD  NFPD  NFGD NUPRD  TFPD  TFGD VRNFD DYLFD
 2022 327    83     0  17.6  -6.0  0.00  0.00  0.00  0.00   0.0  0.00 0.000  0.00    43    43     0     0     0     0     0  0.00     0     0     0     0     0     0   0.0     0     0   150   -99  0.04  0.98  19.7  99.9  1.00  0.00  0.00  0.00  0.00  0.00  0.00   0.0  0.00  0.00  0.50  0.00
 2022 328    84     1  16.4  -6.0  5.84  0.00  0.00  0.00   0.0  0.00 0.000  0.00    43    43     0     0     0     0     0  0.00     0     0     0     0     0     0   0.0     0     0   150   -99  0.04  0.98   7.2  99.9  1.00  0.00  0.00  0.00  0.00  0.00  0.00   0.0  0.00  0.00  0.50  0.00
 2022 329    85     2  17.4  -6.0  8.40  0.00  0.00  0.00   0.0  0.00 0.000  0.00    43    41     2     0     0     0     0  0.00     0     0     0     0     0     0   0.0     0     0   150   -99  0.07  0.98   4.7  99.9  1.00  0.00  0.00  0.00  0.00  0.00  0.00   0.0  0.00  0.00  0.50  0.00
 2022 330    86     3  18.0  -6.0 10.00  0.00  0.00  0.00   0.0  0.00 0.000  0.00    43    39     3     0     0     0     0  0.00     0     0     0     0     0 .0014   0.0     0     0   150   -99  0.10  0.98   4.6  99.9  1.00  0.00  0.00  0.00  0.00  0.00  0.00   2.0  0.00  0.00  0.50  0.00
 2022 331    87     4  16.3  -6.0 10.34  0.34  0.02  0.00   0.0  0.03 0.003  0.03    43    25     5    13     8     4     0  0.00     0     0     0     0     0 .0041   0.0     0     0   150   350  0.13  0.75   5.0  99.9  1.00  0.00  0.00  0.00  0.00  0.00  0.00   0.1  0.00  0.00  0.50  0.31
 2022 332    88     5  16.1  -6.0 10.68  0.68  0.03  1.18   1.8  0.05 0.005  0.05    44    17     6    20    14     7     0  0.00     0     0     0     0 0.126 .0079   0.8     0     0   150   347  0.16  0.71   5.5  97.0  0.57  0.86  0.43  0.56  0.00  0.00  0.00   0.1  0.00  0.00  0.50  0.31
 2022 333    89     6  18.1  -6.0 11.06  1.06  0.04  0.57   1.4  0.06 0.006  0.06    45    12     8    25    17     9     0  0.00     0     0     0     0 0.328 .0135   1.5     0     0   150   347  0.19  0.70   7.2  78.3  0.45  1.00  0.55  0.66  0.38  0.38  0.38   0.3  0.00  0.00  0.50  0.32
 2022 334    90     7  18.5  -6.0 11.44  1.44  0.04  0.57   1.6  0.06 0.006  0.07    46     9     9    28    18    10     0  0.00     0     0     1     0 0.575 .0208   2.2     0     0   150   346  0.23  0.71   9.1  82.3  0.52  0.96  0.48  0.60  0.47  0.47  0.47   0.7  0.00  0.00  0.50  0.32
 2022 335    91     8  19.2  -6.0 11.85  1.85  0.04  0.62   2.0  0.07 0.007  0.07    48     9    10    29    19    10     0  0.00     0     0     1     0 0.844 .0295   2.8     0     0   150   345  0.26  0.71  11.1  89.5  0.54  0.92  0.46  0.58  0.44  0.44  0.44   1.2  0.00  0.00  0.50  0.32
 2022 336    92     9  23.0  -6.0 12.16  2.16  0.04  0.65   2.1  0.07 0.007  0.08    49     9    10    31    20    11     0  0.00     0     0     1     0 1.126 .0406   3.4     0     0   150   344  0.30  0.71  13.5  99.9  0.51  0.97  0.49  0.60  0.39  0.39  0.39   1.4  0.00  0.20  0.50  0.32
 2022 337    93    10  23.0  -6.0 12.40  2.40  0.04  0.74   2.2  0.07 0.007  0.08    51     9    10    32    21    11     0  0.00     0     0     1     0 1.419 .0521   3.9     0     0   150   343  0.35  0.71  16.1  99.9  0.55  0.91  0.45  0.58  0.35  0.35  0.35   1.5  0.00  0.20  0.50  0.32
 2022 338    94    11  22.0  -6.0 12.63  2.63  0.05  0.81   2.4  0.07 0.007  0.08    53     9    11    33    21    12     0  0.00     0     0     1     0 1.723 .0636   4.3     0     0   159   342  0.37  0.72  17.8  99.9  0.56  0.87  0.44  0.57  0.31  0.31  0.31   1.6  0.00  0.13  0.50  0.32
 2022 339    95    12  22.2  -6.0 12.87  2.87  0.05  1.50   1.9  0.08 0.008  0.08    54     9    11    35    23    12     0  0.00     0     0     1     0 1.723 .0756   3.8     0     0   209   341  0.40  0.73  19.5  99.9  1.39  0.00  0.00  0.00  0.28  0.28  0.28   2.0  0.00  0.15  0.50  0.32
 2022 340    96    13  19.7  -6.0 13.07  3.07  0.05  1.56   1.5  0.08 0.008  0.09    56     9    11    36    23    12     0  0.00     0     0     1     0 1.723 .0865   3.3     0     0   256   340  0.42  0.74  23.0  99.9  1.96  0.00  0.00  0.00  0.25  0.25  0.25   2.0  0.00  0.00  0.50  0.32
 2022 341    97    14  20.0  -6.0 21.03  3.28  0.05  1.61   2.6  0.08 0.008  0.09    58     9    12    38    25    13     0  0.00     0     0     1     0 1.723 .0978   2.9     0     0   304   339  0.44  0.74  23.7  99.9  1.21  0.00  0.00  0.07  0.22  0.22  0.22   1.7  0.00  0.00  0.50  0.32
 2022 342    98    15  20.8  -6.0 21.07  3.50  0.06  0.91   3.3  0.09 0.009  0.10    61     9    12    40    26    14     0  0.00     0     0     1     0 2.085 0.110   3.5     0     0   310   337  0.47  0.72  24.7  99.9  0.55  0.91  0.45  0.58  0.20  0.20  0.20   1.4  0.00  0.05  0.50  0.32
 2022 343    99    16  18.0  -6.0 21.09  3.69  0.06  0.90   3.8  0.09 0.009  0.10    64     9    13    42    27    15     0  0.00     0     0     2     0 2.463 0.121   4.0     0     0   313   336  0.49  0.72  26.0  99.9  0.52  0.95  0.48  0.60  0.17  0.17  0.17   1.5  0.00  0.00  0.50  0.32
 2022 344   100    17  17.0  -6.0 21.10  3.87  0.06  0.91   4.2  0.10 0.010  0.11    67     9    14    45    29    16     0  0.00     0     0     2     0 2.862 0.132   4.3     0     0   315   335  0.51  0.72  27.2  99.9  0.52  0.97  0.48  0.60  0.15  0.15  0.15   1.5  0.00  0.00  0.50  0.32
 2022 345   101    18  16.2  -6.0 21.14  4.04  0.06  1.01   4.7  0.10 0.011  0.11    71     9    14    48    31    17     0  0.00     0     0     2     0 3.282 0.143   4.7     0     0   321   333  0.52  0.72  28.3  99.9  0.56  0.88  0.44  0.57  0.13  0.13  0.13   1.5  0.00  0.00  0.50  0.32
 2022 346   102    19  16.1  -6.0 21.19  4.20  0.06  1.06   5.3  0.10 0.010  0.11    73     9    15    49    30    19     0  0.00     0     0     5     0 5.846 0.155   9.4     0     0   328   331  0.54  0.73  29.4  99.9  0.57  0.85  0.43  0.56  0.11  0.11  0.11   1.4  0.00  0.00  0.50  0.32
 2022 347   103    20  15.1  -6.0 21.32  4.36  0.06  1.32   6.1  0.10 0.010  0.11    76     9    16    52    30    21     0  0.00     0     0     6     0 7.836 0.166  12.1     0     0   348   329  0.56  0.74  78.1  99.9  0.70  0.59  0.30  0.46  0.09  0.09  0.09   2.0  0.00  0.00  0.50  0.32
 2022 348   104    21  15.2  -6.0 21.61  4.52  0.07  1.91   9.5  0.11 0.011  0.12    83     9    18    57    33    24     0  0.00     0     0     8     0 9.851 0.178  13.6     0     0   392   326  0.58  0.76  61.4  99.9  2.50  0.00  0.00  0.00  0.08  0.08  0.08   2.0  0.00  0.00  0.50  0.32
 2022 349   105    22  14.6  -6.0 21.90  4.67  0.07  1.95  10.1  0.12 0.012  0.13    90     9    19    63    36    27     0  0.00     0     0     9     0 11.81 0.191  14.5     0     0   435   324  0.59  0.76  45.9  99.9  2.73  0.00  0.00  0.00  0.06  0.06  0.06   2.0  0.00  0.00  0.49  0.32
 2022 350   106    23  12.5  -6.0 22.15  4.81  0.08  1.98   6.2  0.12 0.013  0.14    95     9    20    67    38    28     0  0.00     0     0     9     0 12.57 0.203  13.5     0     0   472   323  0.61  0.77  39.5  99.9  3.40  0.00  0.00  0.00  0.05  0.05  0.05   2.0  0.00  0.00  0.41  0.33
 2022 351   107    24  14.9  -6.0 22.45  4.96  0.09  2.00  11.3  0.14 0.016  0.16   105     9    21    75    45    31     0  0.00     0     0     8     0 12.57 0.218  11.0     0     0   517   321  0.63  0.77  37.7  99.9  1.81  0.00  0.00  0.00  0.04  0.04  0.04   1.0  0.00  0.00  0.41  0.33
 2022 352   108    25  15.5  -6.0 22.76  5.12  0.10  2.02  13.3  0.17 0.018  0.18   117     9    23    85    52    34     0  0.00     0     0     8     0 12.57 0.234   9.0     0     0   565   320  0.64  0.77  38.2  99.9  1.58  0.00  0.00  0.00  0.03  0.03  0.03   0.9  0.00  0.00  0.41  0.33
 2022 353   109    26  14.8  -6.0 23.06  5.28  0.11  1.99  15.2  0.19 0.021  0.21   130     9    25    97    59    37     0  0.00     0     0     8     0 13.06 0.251   7.9     0     0   609   317  0.66  0.77  38.9  99.9  1.33  0.00  0.00  0.00  0.04  0.04  0.04   0.9  0.00  0.00  0.40  0.33
 2022 354   110    27  16.6  -6.0 23.39  5.45  0.13  1.97  15.5  0.21 0.023  0.23   144     9    27   108    67    41     0  0.00     0     0     8     0 13.63 0.272   7.1     0     0   659   316  0.67  0.77  39.7  99.9  1.32  0.00  0.00  0.00  0.05  0.05  0.05   1.0  0.00  0.00  0.40  0.33
 2022 355   111    28  15.2  -6.0 23.85  5.61  0.14  2.00  19.5  0.24 0.027  0.27   161     9    30   123    76    46     0  0.00     0     0     8     0 14.15 0.293   6.3     0     0   728   314  0.69  0.77  40.4  99.9  1.15  0.00  0.00  0.11  0.04  0.04  0.04   0.9  0.00  0.00  0.40  0.33
 2022 356   112    29  15.3  -6.0 24.31  5.77  0.16  1.98  22.1  0.27 0.030  0.30   181     9    33   139    87    52     0  0.00     0     0     8     0 14.67 0.316   5.7     0     0   797   312  0.70  0.77  41.0  99.9  1.08  0.00  0.00  0.17  0.04  0.04  0.04   0.9  0.00  0.00  0.40  0.33
 2022 357   113    30  15.9  -6.0 24.78  5.94  0.18  1.96  24.3  0.31 0.035  0.34   202     9    36   157    99    58     0  0.00     0     0     8     0 15.22 0.343   5.1     0     0   868   311  0.72  0.77  41.6  92.1  1.03  0.00  0.00  0.21  0.05  0.05  0.05   0.9  0.00  0.00  0.40  0.33
 2022 358   114    31  16.2  -6.0 25.26  6.11  0.20  1.93  26.9  0.35 0.039  0.39   226     9    40   177   112    65     0  0.00     0     0     8     0 15.78 0.372   4.7     0     0   940   310  0.73  0.77  42.3  82.8  0.99  0.02  0.01  0.24  0.06  0.06  0.06   0.9  0.00  0.00  0.40  0.33
 2022 359   115    32  17.8  -6.0 25.73  6.29  0.22  1.78  27.8  0.39 0.044  0.43   251     9    44   198   126    73     0  0.00     0     0     9     0 16.42 0.408   4.4     0     0  1009   308  0.75  0.77  42.9  72.4  0.92  0.17  0.08  0.30  0.06  0.06  0.06   0.9  0.00  0.00  0.46  0.33
 2022 360   116    33  17.0  -6.0 26.13  6.47  0.24  1.70  29.7  0.43 0.049  0.48   277     9    48   220   140    80     0  0.00     0     0     9     0 17.03 0.445   4.1     0     0  1069   306  0.77  0.77  43.6  67.0  0.87  0.25  0.13  0.33  0.06  0.06  0.06   0.9  0.00  0.00  0.46  0.33
 2022 361   117    34  17.5  -6.0 26.49  6.66  0.26  1.63  30.8  0.47 0.054  0.53   304     9    52   243   155    88     0  0.00     0     0     9     0 17.67 0.487   3.8     0     0  1124   305  0.79  0.76  44.2  62.1  0.84  0.33  0.16  0.36  0.06  0.06  0.06   1.0  0.00  0.00  0.50  0.33
 2022 362   118    35  16.6  -6.0 26.99  6.83  0.28  1.97  25.3  0.51 0.059  0.57   326     9    56   262   167    95     0  0.00     0     0    10     0 18.28 0.531   3.6     0     0  1199   304  0.80  0.78  44.9  96.7  1.33  0.00  0.00  0.00  0.05  0.05  0.05   1.3  0.00  0.00  0.50  0.33
 2022 363   119    36  17.2  -6.0 27.51  7.01  0.29  1.99  11.8  0.52 0.061  0.59   337     9    57   271   173    98     0  0.00     0     0     9     0 18.91 0.579   3.5     0     0  1276   303  0.82  0.78  46.1  99.9  3.00  0.00  0.00  0.00  0.04  0.04  0.04   2.0  0.00  0.00  0.50  0.32
 2022 364   120    37  18.6  -6.0 27.86  7.20  0.31  1.60  33.8  0.57 0.066  0.63   366     9    62   295   188   107     0  0.00     0     0    11     0 20.25 0.632   3.6     0     0  1329   302  0.84  0.76  46.8  58.3  0.80  0.40  0.20  0.39  0.03  0.03  0.03   1.1  0.00  0.00  0.50  0.32
 2022 365   121    38  17.8  -6.0 28.13  7.39  0.33  1.51  35.6  0.61 0.072  0.69   397     9    67   321   204   116     0  0.00     0     0    12     0 21.53 0.688   3.6     0     0  1370   300  0.85  0.76  47.3  53.2  0.75  0.51  0.25  0.43  0.02  0.02  0.02   1.1  0.00  0.00  0.50  0.32
 2023   1   122    39  16.6  -6.0 28.51  7.56  0.35  1.76  38.9  0.67 0.078  0.74   431     9    73   349   223   127     0  0.00     0     0    13     0 22.73 0.744   3.6     0     0  1427   299  0.87  0.77  47.8  60.1  0.87  0.27  0.13  0.33  0.02  0.02  0.02   1.1  0.00  0.00  0.50  0.32
 2023   2   123    40  15.1  -6.0 28.98  7.72  0.37  2.05  39.6  0.72 0.085  0.80   466     9    78   379   242   138     0  0.00     0     0    13     0 23.83 0.799   3.5     0     0  1497   298  0.89  0.78  48.2  71.4  1.06  0.00  0.00  0.19  0.01  0.01  0.01   1.1  0.00  0.00  0.50  0.32
 2023   3   124    41  13.8  -6.0 29.21  7.87  0.40  1.56  44.1  0.78 0.092  0.87   504     9    84   412   263   149     0  0.00     0     0    14     0 24.83 0.852   3.4     0     0  1531   297  0.90  0.76  90.9  94.0  0.76  0.48  0.24  0.42  0.01  0.01  0.01   1.0  0.00  0.00  0.46  0.32
 2023   4   125    42  16.3  -6.0 29.71  8.04  0.43  2.06  64.0  0.87 0.103  0.97   562     9    92   461   294   167     0  0.00     0     0    15     0 26.02 0.920   3.3     0     0  1607   295  0.92  0.78  74.4  62.8  2.08  0.00  0.00  0.00  0.00  0.00  0.00   1.4  0.00  0.00  0.46  0.32
 2023   5   126    43  17.6  -6.0 30.00  8.22  0.46  2.07  71.9  0.95 0.115  1.07   623     9   101   513   325   188     0  0.00     0     0    20     0 29.99 1.002   3.8     0     0  1690   293  0.93  0.79  64.4  48.2  2.03  0.00  0.00  0.00  0.00  0.00  0.00   1.4  0.00  0.00  0.48  0.32
 2023   6   127    44  18.3  -6.0 30.00  8.41  0.49  2.07  75.7  1.04 0.127  1.17   688     9   111   569   358   210     0  0.00     0     0    24     0 34.14 1.094   4.2     0     0  1776   292  0.95  0.79  60.6  43.4  1.70  0.00  0.00  0.00  0.00  0.00  0.00   1.3  0.00  0.00  0.48  0.32
 2023   7   128    45  17.7  -6.0 30.00  8.60  0.52  2.07  78.2  1.14 0.139  1.28   756     9   121   626   393   233     0  0.00     0     0    27     0 38.16 1.193   4.4     0     0  1859   290  0.97  0.79  60.1  42.4  1.66  0.00  0.00  0.00  0.00  0.00  0.00   1.3  0.00  0.00  0.48  0.32
 2023   8   129    46  17.3  -6.0 30.00  8.78  0.55  2.07  83.0  1.24 0.153  1.40   827     9   131   688   431   257     0  0.00     0     0    31     0 42.11 1.297   4.5     0     0  1941   289  0.99  0.79  59.8  40.1  1.55  0.00  0.00  0.00  0.00  0.00  0.00   1.2  0.00  0.00  0.48  0.32
 2023   9   130    47  16.6  -6.0 30.00  8.95  0.59  2.07  92.0  1.36 0.168  1.53   908     9   143   756   473   283     0  0.00     0     0    34     0 45.93 1.407   4.5     0     0  2019   287  1.00  0.79  59.3  36.3  1.38  0.00  0.00  0.00  0.00  0.00  0.00   1.1  0.00  0.00  0.48  0.32
 2023  10   131    48  17.2  -6.0 30.00  9.13  0.62  2.07  94.3  1.49 0.184  1.67   992     9   155   829   520   309     0  0.00     0     0    35     0 47.99 1.529   4.3     0     0  2100   286  1.02  0.79  58.8  34.6  1.27  0.00  0.00  0.02  0.00  0.00  0.00   1.1  0.00  0.00  0.48  0.32
 2023  11   132    49  17.9  -6.0 30.00  9.32  0.65  2.07 104.8  1.60 0.200  1.80  1079     9   168   903   562   341     0  0.00     0     0    43     0 56.54 1.668   4.8     0     0  2184   285  1.04  0.79  58.2  30.3  1.10  0.00  0.00  0.16  0.00  0.00  0.00   1.0  0.00  0.00  0.50  0.32
 2023  12   133    50  18.4  -6.0 30.00  9.51  0.67  2.07 109.9  1.72 0.216  1.94  1171     9   181   981   607   374     0  0.00     0     0    51     0 65.37 1.822   5.2     0     0  2270   283  1.05  0.79  57.5  28.6  1.03  0.00  0.00  0.21  0.00  0.00  0.00   1.1  0.00  0.00  0.50  0.32
 2023  13   134    51  16.6  -6.0 30.00  9.69  0.70  1.95 106.6  1.84 0.232  2.07  1260     9   195  1057   652   405     0  0.00     0     0    57     0 73.39 1.973   5.4     0     0  2340   282  1.07  0.79  56.8  28.0  0.94  0.11  0.06  0.27  0.00  0.00  0.00   1.2  0.00  0.00  0.50  0.32
 2023  14   135    52  17.6  -6.0 30.00  9.87  0.72  1.73  96.6  1.94 0.247  2.19  1339     9   208  1123   691   432     0  0.00     0     0    63     0 81.93 2.145   5.6     0     0  2395   281  1.09  0.78  56.3  26.6  0.84  0.33  0.16  0.36  0.00  0.00  0.00   1.3  0.00  0.00  0.50  0.32
 2023  15   136    53  16.9  -6.0 30.00 10.05  0.73  2.07  81.8  2.03 0.259  2.29  1406     9   218  1180   725   455     0  0.00     0     0    67     0 90.10 2.320   5.7     0     0  2474   280  1.10  0.79  56.1  39.0  1.15  0.00  0.00  0.12  0.00  0.00  0.00   1.5  0.00  0.00  0.50  0.31
 2023  16   137    54  17.0  -6.0 30.00 10.23  0.75  1.51  88.2  2.11 0.271  2.38  1476     9   230  1238   758   479     0  0.00     0     0    73     0 99.84 2.505   5.9     0     0  2510   279  1.12  0.77  55.8  26.0  0.73  0.55  0.27  0.44  0.00  0.00  0.00   1.4  0.00  0.00  0.50  0.31
 2023  17   138    55  14.1  -6.0 30.00 10.37  0.75  2.07  37.2  2.14 0.275  2.42  1502     9   234  1259   771   488     0  0.00     0     0    75     0 108.0 2.667   6.0     0     0  2577   278  1.14  0.79  56.5  92.1  2.41  0.00  0.00  0.00  0.00  0.00  0.00   2.0  0.00  0.00  0.47  0.31
 2023  18   139    56  13.8  -6.0 30.00 10.52  0.77  1.51  87.3  2.23 0.289  2.52  1573     9   246  1318   807   511     0  0.00     0     0    78     0 116.0 2.828   5.9     0     0  2606   277  1.15  0.77  56.0  28.0  0.73  0.55  0.27  0.44  0.00  0.00  0.00   1.4  0.00  0.00  0.43  0.31
 2023  19   140    57  14.2  -6.0 30.00 10.67  0.78  1.40  82.0  2.32 0.300  2.62  1639     9   258  1373   840   533     0  0.00     0     0    81     0 124.2 3.004   5.9     0     0  2629   276  1.16  0.76  55.7  27.0  0.67  0.65  0.33  0.48  0.00  0.00  0.00   1.5  0.00  0.00  0.41  0.31
 2023  20   141    58  13.8  -6.0 30.00 10.81  0.78  1.19  79.0  2.35 0.306  2.66  1690     9   269  1412   855   558     0  0.00     0     0    95     0 144.0 3.181   6.8     0     0  2639   275  1.18  0.75 110.9  47.5  0.57  0.86  0.43  0.56  0.00  0.00  0.00   1.6  0.00  0.00  0.37  0.31
 2023  21   142    59  14.1  -6.0 30.00 10.96  0.81  2.07 139.6  2.53 0.331  2.86  1813     9   286  1518   923   596     0  0.00     0     0    96     0 149.4 3.371   6.3     0     0  2705   274  1.19  0.80  94.3  39.8  3.34  0.00  0.00  0.00  0.00  0.00  0.00   2.0  0.00  0.00  0.34  0.31
 2023  22   143    60  14.1  -6.0 30.00 11.10  0.83  2.07 147.2  2.73 0.359  3.09  1948     9   304  1636  1002   633     0  0.00     0     0    92     0 149.4 3.572   5.6     0     0  2705   273  1.20  0.80  84.8  33.8  3.35  0.00  0.00  0.00  0.00  0.00  0.00   1.7  0.00  0.00  0.31  0.31
 2023  23   144    61  12.6  -6.0 30.00 11.24  0.84  2.07 128.3  2.86 0.379  3.24  2054     9   319  1726  1056   671     0  0.00     0     0    99     0 161.2 3.762   5.7     0     0  2705   271  1.22  0.80  82.2  39.1  3.88  0.00  0.00  0.00  0.00  0.00  0.00   1.9  0.00  0.00  0.24  0.31
 2023  24   145    62  13.1  -6.0 30.00 11.37  0.86  2.07 155.0  3.03 0.403  3.43  2184     9   337  1838  1122   716     0  0.00     0     0   107     0 173.4 3.971   5.8     0     0  2705   270  1.22  0.80  79.0  30.8  3.08  0.00  0.00  0.00  0.00  0.00  0.00   1.9  0.00  0.00  0.18  0.31
 2023  25   146    63  14.5  -6.0 30.00 11.52  0.88  2.07 158.8  3.23 0.432  3.66  2326     9   356  1962  1203   759     0  0.00     0     0   105     0 176.8 4.216   5.4     0     0  2705   268  1.22  0.80  75.6  27.6  2.71  0.00  0.00  0.00  0.00  0.00  0.00   1.9  0.00  0.00  0.00  0.00
 2023  26   147    64  15.7  -6.0 30.00 11.69  0.89  2.07 149.2  3.41 0.459  3.87  2459     9   373  2077  1278   799     0  0.00     0     0   105     0 181.2 4.495   5.1     0     0  2705   267  1.22  0.80  72.4  27.5  2.67  0.00  0.00  0.00  0.00  0.00  0.00   2.0  0.00  0.00  0.00  0.00
 2023  27   148    65  12.1  -6.0 30.00 11.82  0.90  2.07 121.1  3.57 0.482  4.05  2567     9   387  2171  1341   830     0  0.00     0     0   104     0 184.6 4.721   4.8     0     0  2705   266  1.22  0.81  70.0  34.9  3.12  0.00  0.00  0.00  0.00  0.00  0.00   2.0  0.00  0.00  0.00  0.00
 2023  28   149    66  15.6  -6.0 30.00 11.98  0.91  2.07 136.5  3.73 0.506  4.23  2688     9   403  2277  1408   869     0  0.00     0     0   104     0 189.0 5.024   4.6     0     0  2705   265  1.22  0.81  67.2  27.5  2.29  0.00  0.00  0.00  0.00  0.00  0.00   2.0  0.00  0.00  0.00  0.00
 2023  29   150    67  14.4  -6.0 30.17 12.13  0.92  2.07 167.2  3.92 0.536  4.46  2839     9   422  2409  1485   923     0  0.00     0     0   107     0 193.1 5.315   4.5     0     0  2705   264  1.22  0.81  64.1  21.9  1.67  0.00  0.00  0.00  0.00  0.00  0.00   2.0  0.00  0.00  0.00  0.00
 2023  30   151    68  14.6  -6.0 30.86 12.28  0.93  2.07 151.0  4.09 0.563  4.65  2974     9   438  2527  1552   976     0  0.00     0     0   110     0 197.2 5.621   4.3     0     0  2705   264  1.22  0.81  61.4  23.0  1.57  0.00  0.00  0.00  0.00  0.00  0.00   2.0  0.00  0.00  0.00  0.00
 2023  31   152    69  14.5  -6.0 31.55 12.43  0.94  2.07 156.2  4.26 0.592  4.85  3114     9   455  2651  1620  1031     0  0.00     0     0   113     0 201.3 5.939   4.3     0     0  2705   263  1.22  0.82  58.5  21.2  1.32  0.00  0.00  0.00  0.00  0.00  0.00   2.0  0.00  0.00  0.00  0.00
 2023  32   153    70  13.4  -6.0 32.19 12.57  0.94  2.07 117.6  4.39 0.613  5.00  3219     9   468  2743  1669  1074     0  0.00     0     0   114     0 205.1 6.243   4.1     0     0  2705   263  1.22  0.82  56.5  28.2  1.57  0.00  0.00  0.00  0.00  0.00  0.00   2.0  0.00  0.00  0.00  0.00
 2023  33   154    71  15.9  -6.0 32.94 12.74  0.95  2.00 156.5  4.55 0.641  5.20  3359     9   484  2866  1735  1131     0  0.00     0     0   118     0 209.7 6.613   4.1     0     0  2705   262  1.22  0.82  53.6  18.2  0.96  0.07  0.04  0.26  0.00  0.00  0.00   2.0  0.00  0.00  0.00  0.00
 2023  34   155    72  16.9  -6.0 33.74 12.92  0.95  1.66 129.6  4.68 0.664  5.35  3473     9   499  2966  1787  1178     0  0.00     0     0   121     0 214.5 7.022   4.1     0     0  2705   262  1.22  0.80  96.4  31.5  0.80  0.40  0.20  0.39  0.00  0.00  0.00   2.0  0.00  0.00  0.00  0.00
 2023  35   156    73  16.9  -6.0 34.55 13.09  0.96  2.07 168.8  4.85 0.694  5.54  3625     9   516  3100  1858  1243     0  0.00     0     0   128     0 219.4 7.443   4.1     0     0  2705   261  1.22  0.83  89.4  28.0  3.81  0.00  0.00  0.00  0.00  0.00  0.00   2.0  0.00  0.00  0.00  0.00
 2023  36   157    74  18.1  -6.0 35.41 13.28  0.96  2.07 169.7  5.01 0.724  5.73  3778     9   533  3236  1927  1309     0  0.00     0     0   136     0 224.6 7.912   4.2     0     0  2705   260  1.22  0.83  83.4  25.3  4.61  0.00  0.00  0.00  0.00  0.00  0.00   2.0  0.00  0.00  0.00  0.00
 2023  37   158    75  16.7  -6.0 36.21 13.46  0.97  2.07 163.5  5.16 0.754  5.91  3925     9   549  3367  1993  1375     0  0.00     0     0   143     0 229.4 8.357   4.2     0     0  2705   259  1.22  0.83  80.1  26.2  5.05  0.00  0.00  0.00  0.00  0.00  0.00   2.0  0.00  0.00  0.00  0.00
 2023  38   159    76  16.2  -6.0 36.98 13.63  0.97  2.07 178.1  5.32 0.786  6.11  4086     9   566  3511  2064  1448     0  0.00     0     0   152     0 234.1 8.802   4.3     0     0  2705   258  1.22  0.84  76.6  23.4  4.46  0.00  0.00  0.00  0.00  0.00  0.00   2.0  0.00  0.00  0.00  0.00
 2023  39   160    77  18.1  -6.0 37.84 13.82  0.97  2.07 183.8  5.48 0.819  6.30  4252     9   584  3660  2136  1525     0  0.00     0     0   162     0 239.3 9.316   4.4     0     0  2705   257  1.22  0.84  72.8  20.4  3.67  0.00  0.00  0.00  0.00  0.00  0.00   2.0  0.00  0.00  0.00  0.00
 2023  40   161    78  15.1  -6.0 38.56 13.97  0.97  2.07 186.4  5.64 0.853  6.49  4422     9   601  3813  2208  1605     0  0.00     0     0   171     0 243.7 9.757   4.5     0     0  2705   255  1.22  0.84  69.2  20.2  3.04  0.00  0.00  0.00  0.00  0.00  0.00   2.0  0.00  0.00  0.00  0.00
 2023  41   162    79  17.1  -6.0 39.38 14.15  0.98  2.07 164.7  5.78 0.883  6.66  4571     9   616  3947  2269  1677     0  0.00     0     0   179     0 248.7 10.27   4.5     0     0  2705   255  1.22  0.84  65.9  20.8  2.67  0.00  0.00  0.00  0.00  0.00  0.00   2.0  0.00  0.00  0.00  0.00
 2023  42   163    80  14.0  -6.0 40.05 14.30  0.98  2.07  59.7  5.84 0.895  6.73  4623     9   621  3993  2287  1707     0  0.00     0     0   172     0 252.8 10.70   4.3     0     0  2705   255  1.22  0.85  64.8  61.4  6.62  0.00  0.00  0.00  0.00  0.00  0.00   2.0  0.00  0.00  0.00  0.00
 2023  43   164    81  15.7  -6.0 40.84 14.30  0.98  2.72 220.4  5.79 0.922  6.71  4829     9   640  4181  2339  1830     0  0.00     0     0   241    12 252.8 11.19   5.8     0     0  2705   248  1.22  0.85  61.6  19.9  2.12  0.00  0.00  0.00  0.00  0.00  0.00   2.0  0.00  0.00  0.00  0.00
 2023  44   165    82  13.9  -6.0 41.53 14.30  0.98  2.72 148.6  5.75 0.939  6.69  4969     9   653  4308  2338  1947     0  0.00     0     0   290    23 252.8 11.64   6.8     0     0  2705   246  1.22  0.85  59.5  30.0  2.78  0.00  0.00  0.00  0.00  0.00  0.00   2.0  0.00  0.00  0.00  0.00
 2023  45   166    83  13.7  -6.0 42.22 14.30  0.98  2.72 221.5  5.71 0.968  6.68  5177     9   671  4498  2327  2137     0  0.00     0     0   358    34 252.8 12.08   8.0     0     0  2705   245  1.22  0.86  56.3  18.8  1.65  0.00  0.00  0.00  0.00  0.00  0.00   2.0  0.00  0.00  0.00  0.00
 2023  46   167    84  14.2  -6.0 42.93 14.30  0.97  2.72 228.0  5.64 0.997  6.64  5392     9   690  4694  2315  2334     0  0.00     0     0   428    45 252.8 12.56   9.2     0     0  2642   244  1.22  0.86  56.9  18.5  1.35  0.00  0.00  0.00  0.00  0.00  0.00   2.0  0.00  0.00  0.00  0.00
 2023  47   168    85  14.1  -6.0 43.63 14.30  0.97  2.72 251.5  5.58 1.030  6.61  5630     9   710  4911  2303  2552     0  0.00     0     0   505    57 252.8 13.05  10.4     0     0  2581   242  1.22  0.86  53.3  15.7  1.59  0.00  0.00  0.00  0.00  0.00  0.00   2.0  0.00  0.00  0.00  0.00
 2023  48   169    86  12.8  -6.0 44.27 14.30  0.97  2.72 181.2  5.52 1.053  6.57  5801     9   723  5069  2292  2710     0  0.00     0     0   562    67 252.8 13.50  11.2     0     0  2528   241  1.22  0.87  97.5  40.6  1.61  0.00  0.00  0.00  0.00  0.00  0.00   2.0  0.00  0.00  0.00  0.00
 2023  49   170    87  17.4  -6.0 45.15 14.30  0.97  2.72 161.2  5.43 1.071  6.50  5953     9   735  5209  2276  2853     0  0.00     0     0   618    81 252.8 14.13  12.1     0     0  2456   239  1.21  0.87 103.9  44.9  7.90  0.00  0.00  0.00  0.00  0.00  0.00   2.0  0.00  0.00  0.00  0.00
 2023  50   171    88  18.8  -6.0 46.09 14.30  0.97  2.72 141.1  5.35 1.085  6.43  6086     9   745  5333  2259  2978     0  0.00     0     0   670    96 252.8 14.82  12.8     0     0  2382   237  1.21  0.88  90.6  43.4  9.97  0.00  0.00  0.00  0.00  0.00  0.00   2.0  0.00  0.00  0.00  0.00
 2023  51   172    89  18.3  -6.0 47.00 14.30  0.97  2.72 173.8  5.26 1.105  6.37  6251     9   757  5486  2243  3132     0  0.00     0     0   731   111 252.8 15.50  13.6     0     0  2312   235  1.21  0.88  84.5  33.1  8.58  0.00  0.00  0.00  0.00  0.00  0.00   2.0  0.00  0.00  0.00  0.00
 2023  52   173    90  16.3  -6.0 47.82 14.30  0.97  2.72 160.3  5.19 1.124  6.31  6404     9   767  5628  2229  3275     0  0.00     0     0   787   124 252.8 16.12  14.3     0     0  2252   233  1.21  0.89  82.5  37.0  9.98  0.00  0.00  0.00  0.00  0.00  0.00   2.0  0.00  0.00  0.00  0.00
 2023  53   174    91  15.3  -6.0 48.59 14.30  0.96  2.72 263.7  5.12 1.159  6.27  6655     9   784  5862  2215  3511     0  0.00     0     0   870   137 252.8 16.71  15.2     0     0  2196   231  1.21  0.89  78.7  21.9  6.27  0.00  0.00  0.00  0.00  0.00  0.00   2.0  0.00  0.00  0.00  0.00
 2023  54   175    92  16.1  -6.0 49.39 14.30  0.96  2.72 264.6  5.04 1.194  6.24  6908     9   801  6098  2200  3641     0  0.00   107   107   954   150 252.8 17.34  16.0     0     0  2140   229  1.21  0.89  74.7  20.0  5.73  0.00  0.00  0.00  0.00  0.00  0.00   2.0  0.00  0.00  0.00  0.00
 2023  55   176    93  13.1  -6.0 50.26 14.30  0.96  2.72 170.0  4.98 1.216  6.20  7070     9   811  6251  2188  3697     0  0.00   205   177  1011   161 252.8 17.87  16.6     0     0  2096   228  1.21  0.90  72.3  32.2  7.94  0.00  0.00  0.00  0.00  0.00  0.00   2.0  0.00  0.00  0.00  0.00
 2023  56   177    94  15.6  -6.0 54.11 14.30  0.96  2.72 167.1  4.93 1.232  6.16  7230     9   820  6401  2179  3760     0  0.00   293   245  1065   169 252.8 18.50  17.1     0     0  2044   226  1.21  0.90  69.8  30.0  6.63  0.00  0.00  0.00  0.00  0.00  0.00   2.0  0.00  0.00  0.00  0.00
 2023  57   178    95  17.0  -6.0 58.27 14.30  0.96  2.72 271.1  4.87 1.264  6.13  7491     9   834  6648  2170  3873     0  0.00   426   358  1148   179 252.8 19.20  17.7     0     0  1990   224  1.21  0.91  65.7  17.0  3.43  0.00  0.00  0.00  0.00  0.00  0.00   2.0  0.00  0.00  0.00  0.00
 2023  58   179    96  16.0  -6.0 66.36 14.30  0.96  2.72 270.7  4.81 1.298  6.11  7752     9   845  6898  2162  3973     0  0.00   576   471  1232   187 252.8 19.86  18.4     0     0  1941   223  1.21  0.92  61.6  16.2  2.69  0.00  0.00  0.00  0.00  0.00  0.00   2.0  0.00  0.00  0.00  0.00
 2023  59   180    97  16.1  -6.0 70.53 14.30  0.95  2.72 239.0  4.76 1.327  6.09  7984     9   854  7122  2153  4058     0  0.00   714   573  1308   196 252.8 20.54  18.9     0     0  1893   221  1.21  0.93  57.9  17.1  2.36  0.00  0.00  0.00  0.00  0.00  0.00   2.0  0.00  0.00  0.00  0.00
 2023  60   181    98  12.6  -6.0 71.15 14.30  0.95  2.72  81.7  4.72 1.333  6.05  8064     9   856  7199  2148  4062     5  0.00   781   613  1333   203 252.8 21.08  19.1 16413 .0000  1856   220  1.21  0.95  56.8  54.1  6.07  0.00  0.00  0.00  0.00  0.00  0.00   2.0  0.00  0.00  0.00  0.00
 2023  61   182    99  14.6  -6.0 71.87 14.30  0.95  2.72 279.8  4.67 1.370  6.04  8338     9   863  7466  2139  4179    21  0.00   915   751  1405   212 252.8 21.71  19.4 16413 .0001  1814   218  1.21  0.95  52.8  14.1  1.58  0.00  0.00  0.00  0.00  0.00  0.00   2.0  0.00  0.00  0.00  0.00
 2023  62   183   100  14.9  -6.0 72.59 14.30  0.95  2.72 285.8  4.62 1.410  6.03  8619     9   869  7742  2130  4265    48  0.01  1078   903  1470   220 252.8 22.36  19.7 16413 .0003  1773   217  1.21  0.96  48.6  12.4  1.19  0.00  0.00  0.09  0.00  0.00  0.00   2.0  0.00  0.00  0.00  0.00
 2023  63   184   101  14.5  -6.0 73.30 14.30  0.95  2.46 259.4  4.57 1.445  6.02  8874     9   874  7992  2122  4331    82  0.01  1228  1051  1519   228 252.8 22.98  19.8 16413 .0005  1735   215  1.21  0.97  44.7  11.4  0.90  0.19  0.10  0.30  0.00  0.00  0.00   2.0  0.00  0.00  0.00  0.00
 2023  64   185   102  15.5  -6.0 74.05 14.30  0.95  1.86 198.8  4.52 1.436  5.96  9068     9   878  8181  2113  4396   133  0.02  1303  1102  1666   237 252.8 23.66  21.3 16413 .0008  1694   214  1.21  0.95  41.5  10.2  0.69  0.63  0.31  0.47  0.00  0.00  0.00   2.0  0.00  0.00  0.00  0.00
 2023  65   186   103  16.9  -6.0 74.88 14.30  0.94  1.56 160.1  4.37 1.426  5.80  9225     9   882  8334  2061  4459   203  0.02  1338  1172  1785   273 252.8 24.40  22.7 16413 .0012  1652   212  1.21  0.95  39.2   9.7  0.57  0.85  0.43  0.56  0.00  0.00  0.00   2.0  0.00  0.00  0.00  0.00
 2023  66   187   104  16.9  -6.0 75.70 14.30  0.94  1.73 137.6  4.32 1.417  5.74  9360     9   884  8468  2050  4494   288  0.03  1353  1256  1844   283 252.8 25.15  23.4 16413 .0018  1611   211  1.21  0.97  89.0  28.7  0.64  0.73  0.36  0.51  0.00  0.00  0.00   2.0  0.00  0.00  0.00  0.00
 2023  67   188   105  18.4  -6.0 76.59 14.30  0.94  2.72 252.8  4.26 1.407  5.67  9610     9   886  8715  2039  4594   395  0.05  1394  1364  1995   293 252.8 25.96  24.9 16413 .0024  1567   209  1.21  0.98  84.9  22.7  4.36  0.00  0.00  0.00  0.00  0.00  0.00   2.0  0.00  0.00  0.00  0.00
 2023  68   189   106  19.7  -6.0 77.55 14.30  0.93  2.72 275.1  4.20 1.396  5.59  9882     9   889  8985  2026  4691   528  0.06  1434  1497  2143   305 252.8 26.83  26.3 16413 .0032  1522   207  1.21  0.98  80.2  19.3  5.74  0.00  0.00  0.00  0.00  0.00  0.00   2.0  0.00  0.00  0.00  0.00
 2023  69   190   107  19.4  -6.0 78.50 14.30  0.93  2.72 285.7  4.14 1.386  5.52 10165     9   891  9265  2014  4784   678  0.07  1473  1647  2284   316 252.8 27.69  27.6 16413 .0041  1479   205  1.21  0.98  75.4  17.6  5.82  0.00  0.00  0.00  0.00  0.00  0.00   2.0  0.00  0.00  0.00  0.00
 2023  70   191   108  19.6  -6.0 79.46 14.30  0.93  2.72 281.1  4.08 1.376  5.45 10443     9   894  9540  2001  4858   849  0.09  1504  1818  2400   328 252.8 28.57  28.7 16413 .0052  1437   204  1.21  0.98  70.7  16.7  5.08  0.00  0.00  0.00  0.00  0.00  0.00   2.0  0.00  0.00  0.00  0.00
 2023  71   192   109  22.8  -6.0 80.20 14.30  0.93  2.72 279.0  4.01 1.364  5.37 10718     9   896  9814  1986  4896  1070  0.11  1521  2039  2466   341 252.8 29.59  29.3 16413 .0065  1391   202  1.21  0.98  65.7  14.7  3.53  0.00  0.00  0.00  0.00  0.00  0.00   2.0  0.00  0.18  0.00  0.00
 2023  72   193   110  22.0  -6.0 80.59 14.30  0.92  2.72 284.3  3.97 1.353  5.32 10999     9   898 10093  1985  4928  1299  0.13  1534  2268  2520   346 252.8 30.57  29.8 16413 .0079  1348   200  1.21  0.98  60.6  13.6  2.55  0.00  0.00  0.00  0.00  0.00  0.00   2.0  0.00  0.13  0.00  0.00
 2023  73   194   111  19.8  -6.0 80.93 14.30  0.92  2.72 291.3  3.93 1.344  5.27 11287     9   901 10378  1984  4983  1506  0.15  1555  2474  2603   350 252.8 31.46  30.5 16413 .0092  1311   198  1.21  0.98  55.6  12.7  1.89  0.00  0.00  0.00  0.00  0.00  0.00   2.0  0.00  0.00  0.00  0.00
 2023  74   195   112  19.5  -6.0 81.27 14.30  0.92  2.72 255.7  3.90 1.334  5.23 11540     9   903 10629  1983  5015  1708  0.16  1568  2677  2656   354 252.8 32.34  31.0 16413 .0104  1276   196  1.21  0.98  51.3  13.4  1.60  0.00  0.00  0.00  0.00  0.00  0.00   2.0  0.00  0.00  0.00  0.00
 2023  75   196   113  20.5  -6.0 81.62 14.30  0.92  2.72 233.9  3.86 1.325  5.19 11771     9   905 10858  1981  5024  1922  0.18  1572  2891  2676   359 252.8 33.26  31.2 16413 .0117  1240   195  1.21  0.98  47.7  13.5  1.32  0.00  0.00  0.00  0.00  0.00  0.00   2.0  0.00  0.03  0.00  0.00
 2023  76   197   114  20.0  -6.0 81.97 14.30  0.92  2.72  99.9  3.83 1.315  5.14 11870     9   905 10956  1980  4941  2131  0.19  1540  3100  2569   363 252.8 34.17  30.4 16413 .0130  1206   193  1.21  0.98 100.6  68.3  2.48  0.00  0.00  0.00  0.00  0.00  0.00   2.0  0.00  0.00  0.00  0.00
 2023  77   198   115  19.0  -6.0 82.30 14.30  0.92  2.72 271.6  3.79 1.307  5.10 12138     9   908 11222  1979  4987  2330  0.21  1558  3298  2641   367 252.8 35.03  31.0 16413 .0142  1176   192  1.20  0.98 117.5  29.5  5.35  0.00  0.00  0.00  0.00  0.00  0.00   2.0  0.00  0.00  0.00  0.00
 2023  78   199   116  19.0  -6.0 82.64 14.30  0.91  2.72 284.7  3.76 1.298  5.06 12420     9   910 11501  1977  5043  2528  0.22  1580  3497  2725   372 252.8 35.90  31.7 16413 .0154  1146   190  1.20  0.98 100.1  23.9  6.22  0.00  0.00  0.00  0.00  0.00  0.00   2.0  0.00  0.00  0.00  0.00
 2023  79   200   117  19.0  -6.0 82.97 14.30  0.91  2.72 281.7  3.73 1.290  5.02 12698     9   913 11777  1976  5097  2727  0.23  1601  3696  2807   376 252.8 36.76  32.4 16413 .0166  1117   189  1.20  0.98  85.6  20.8  6.01  0.00  0.00  0.00  0.00  0.00  0.00   2.0  0.00  0.00  0.00  0.00
 2023  80   201   118  20.1  -6.0 83.32 14.30  0.91  2.72 278.6  3.70 1.282  4.98 12974     9   915 12050  1974  5141  2936  0.24  1619  3905  2875   380 252.8 37.68  32.9 16413 .0179  1088   187  1.20  0.98  80.2  19.5  6.53  0.00  0.00  0.00  0.00  0.00  0.00   2.0  0.00  0.01  0.00  0.00
 2023  81   202   119  20.2  -6.0 83.67 14.30  0.91  2.72 278.0  3.66 1.273  4.94 13249     9   918 12322  1972  5183  3148  0.26  1635  4116  2941   385 252.8 38.61  33.5 16413 .0192  1060   186  1.20  0.98  75.3  17.9  5.97  0.00  0.00  0.00  0.00  0.00  0.00   2.0  0.00  0.02  0.00  0.00
 2023  82   203   120  19.6  -6.0 84.01 14.30  0.91  2.72 288.5  3.63 1.265  4.90 13534     9   920 12605  1970  5237  3352  0.27  1657  4321  3024   389 252.8 39.51  34.1 16413 .0204  1034   184  1.20  0.98  70.4  16.5  5.34  0.00  0.00  0.00  0.00  0.00  0.00   2.0  0.00  0.00  0.00  0.00
 2023  83   204   121  17.6  -6.0 84.32 14.30  0.90  2.72 307.6  3.60 1.258  4.86 13838     9   923 12907  1969  5320  3535  0.27  1689  4504  3146   393 252.8 40.32  35.0 16413 .0215  1011   183  1.20  0.98  65.3  14.9  3.89  0.00  0.00  0.00  0.00  0.00  0.00   2.0  0.00  0.00  0.00  0.00
 2023  84   205   122  17.1  -6.0 84.61 14.30  0.90  2.72 294.7  3.57 1.252  4.83 14130     9   926 13195  1967  5397  3714  0.28  1720  4682  3260   397 252.8 41.11  35.9 16413 .0226   990   182  1.20  0.98  60.9  14.7  3.04  0.00  0.00  0.00  0.00  0.00  0.00   2.0  0.00  0.00  0.00  0.00
 2023  85   206   123  17.5  -6.0 84.92 14.30  0.90  2.72 296.6  3.55 1.245  4.79 14423     9   929 13486  1965  5474  3896  0.29  1750  4865  3373   401 252.8 41.92  36.7 16413 .0237   969   180  1.20  0.98  56.6  13.3  2.22  0.00  0.00  0.00  0.00  0.00  0.00   2.0  0.00  0.00  0.00  0.00
 2023  86   207   124  17.5  -6.0 85.22 14.30  0.90  2.72 230.0  3.52 1.238  4.76 14651     9   931 13712  1963  5502  4079  0.30  1761  5048  3419   405 252.8 42.73  37.1 16413 .0249   949   179  1.20  0.98  89.1  27.1  2.13  0.00  0.00  0.00  0.00  0.00  0.00   2.0  0.00  0.00  0.00  0.00
 2023  87   208   125  18.8  -6.0 85.55 14.30  0.90  2.72 275.9  3.49 1.231  4.72 14923     9   933 13982  1961  5555  4275  0.31  1782  5243  3498   410 252.8 43.60  37.6 16413 .0260   927   178  1.20  0.98  83.6  20.6  5.91  0.00  0.00  0.00  0.00  0.00  0.00   2.0  0.00  0.00  0.00  0.00
 2023  88   209   126  18.0  -6.0 85.86 14.30  0.89  2.72 285.1  3.46 1.225  4.69 15205     9   936 14261  1959  5619  4462  0.31  1807  5431  3594   414 252.8 44.44  38.3 16413 .0272   908   177  1.20  0.98  78.8  19.0  6.62  0.00  0.00  0.00  0.00  0.00  0.00   2.0  0.00  0.00  0.00  0.00
 2023  89   210   127  19.3  -6.0 86.20 14.30  0.89  2.72 280.9  3.44 1.218  4.65 15483     9   938 14537  1956  5671  4663  0.32  1828  5632  3673   418 252.8 45.35  38.8 16413 .0284   888   176  1.20  0.98  73.8  17.7  6.15  0.00  0.00  0.00  0.00  0.00  0.00   2.0  0.00  0.00  0.00  0.00
[...]
 2023  36   157    64  18.1  -6.0 33.37 11.06  0.53  0.70  31.4  0.99 0.135  1.13   807    15   157   635   369   266     0  0.00     0     0    56     0 143.8 2.435   8.9     0     0   666   269  0.87  0.75  37.4  22.1  0.33  1.00  0.67  0.75  0.00  0.00  0.00   2.0  0.00  0.00  0.00  0.00
 2023  37   158    65  16.7  -6.0 34.17 11.23  0.54  0.74  32.5  1.01 0.139  1.15   830    15   161   654   378   276     0  0.00     0     0    59     0 150.1 2.566   9.1     0     0   666   267  0.88  0.76  37.6  23.7  0.35  1.00  0.65  0.73  0.00  0.00  0.00   2.0  0.00  0.00  0.00  0.00
 2023  38   159    66  16.2  -6.0 34.94 11.39  0.54  0.69  32.9  1.03 0.143  1.17   854    15   166   672   386   287     0  0.00     0     0    62     0 156.3 2.697   9.3     0     0   666   266  0.89  0.76  37.7  22.1  0.32  1.00  0.68  0.75  0.00  0.00  0.00   2.0  0.00  0.00  0.00  0.00
 2023  39   160    67  18.1  -6.0 35.80 11.57  0.55  0.62  31.0  1.04 0.146  1.18   875    15   170   689   392   297     0  0.00     0     0    65     0 162.8 2.847   9.5     0     0   666   265  0.90  0.76  38.0  20.3  0.29  1.00  0.71  0.78  0.00  0.00  0.00   2.0  0.00  0.00  0.00  0.00
 2023  40   161    68  15.1  -6.0 36.52 11.73  0.55  0.64  32.5  1.05 0.150  1.20   898    15   175   708   400   308     0  0.00     0     0    68     0 169.2 2.976   9.6     0     0   666   263  0.91  0.76  38.2  21.2  0.30  1.00  0.70  0.77  0.00  0.00  0.00   2.0  0.00  0.00  0.00  0.00
 2023  41   162    69  17.1  -6.0 37.34 11.90  0.56  0.68  30.8  1.06 0.153  1.21   919    15   179   725   406   319     0  0.00     0     0    71     0 175.8 3.126   9.8     0     0   653   261  0.92  0.77  38.5  23.1  0.32  1.00  0.68  0.75  0.00  0.00  0.00   2.0  0.00  0.00  0.00  0.00
 2023  42   163    70  14.0  -6.0 38.00 12.04  0.57  2.02  33.1  1.10 0.160  1.26   950    15   182   753   424   328     0  0.00     0     0    67     0 175.8 3.251   8.9     0     0   642   259  0.93  0.83  38.6  69.3  0.94  0.12  0.06  0.28  0.00  0.00  0.00   2.0  0.00  0.00  0.00  0.00
 2023  43   164    71  15.7  -6.0 38.75 12.20  0.57  0.66  31.1  1.10 0.164  1.27   971    15   186   770   430   340     0  0.00     0     0    71     0 182.7 3.394   9.2     0     0   631   257  0.94  0.77  38.9  23.3  0.31  1.00  0.69  0.76  0.00  0.00  0.00   2.0  0.00  0.00  0.00  0.00
 2023  44   165    72  13.9  -6.0 39.41 12.34  0.57  1.01  32.2  1.11 0.168  1.28   994    15   190   788   436   352     0  0.00     0     0    74     0 189.4 3.523   9.4     0     0   622   255  0.95  0.79  39.1  36.3  0.47  1.00  0.53  0.64  0.00  0.00  0.00   2.0  0.00  0.00  0.00  0.00
 2023  45   166    73  13.7  -6.0 40.07 12.48  0.57  0.66  31.3  1.12 0.171  1.29  1015    15   194   806   442   364     0  0.00     0     0    77     0 196.3 3.653   9.6     0     0   612   253  0.96  0.78  39.2  24.1  0.31  1.00  0.69  0.77  0.00  0.00  0.00   2.0  0.00  0.00  0.00  0.00
 2023  46   167    74  14.2  -6.0 40.78 12.48  0.56  0.77  38.0  1.08 0.173  1.26  1050    15   199   836   431   397     0  0.00     0     0    94     8 196.3 3.791  11.4     0     0   603   252  0.97  0.78  40.5  24.1  0.29  1.00  0.71  0.78  0.00  0.00  0.00   2.0  0.00  0.00  0.00  0.00
 2023  47   168    75  14.1  -6.0 41.48 12.48  0.55  0.73  39.1  1.05 0.174  1.22  1086    15   204   866   420   431     0  0.00     0     0   111    16 196.3 3.931  13.0     0     0   594   250  0.98  0.78  39.7  21.6  0.28  1.00  0.72  0.79  0.00  0.00  0.00   2.0  0.00  0.00  0.00  0.00
 2023  48   169    76  12.8  -6.0 42.12 12.48  0.54  1.01  38.1  1.02 0.176  1.20  1120    15   208   897   409   464     0  0.00     0     0   128    23 196.3 4.062  14.6     0     0   586   249  0.99  0.80  39.9  31.4  0.38  1.00  0.62  0.71  0.00  0.00  0.00   2.0  0.00  0.00  0.00  0.00
 2023  49   170    77  17.4  -6.0 42.99 12.48  0.53  1.06  35.0  0.99 0.177  1.16  1152    15   212   925   398   495     0  0.00     0     0   144    31 196.3 4.243  16.1     0     0   576   248  1.00  0.80  46.0  38.5  0.40  1.00  0.60  0.69  0.00  0.00  0.00   2.0  0.00  0.00  0.00  0.00
 2023  50   171    78  18.8  -6.0 43.93 12.48  0.52  2.64  74.8  0.97 0.187  1.16  1223    15   218   989   395   560     0  0.00     0     0   166    34 196.3 4.443  17.4     0     0   565   246  1.01  0.86  44.7  41.4  1.11  0.00  0.00  0.14  0.00  0.00  0.00   2.0  0.00  0.00  0.00  0.00
 2023  51   172    79  18.3  -6.0 44.85 12.48  0.51  1.36  47.2  0.94 0.190  1.13  1267    15   223  1028   384   602     0  0.00     0     0   186    42 196.3 4.643  18.8     0     0   554   244  1.02  0.82  43.5  33.5  0.52  0.97  0.48  0.60  0.00  0.00  0.00   2.0  0.00  0.00  0.00  0.00
 2023  52   173    80  16.3  -6.0 45.66 12.48  0.50  1.43  44.5  0.91 0.193  1.10  1308    15   228  1065   374   642     0  0.00     0     0   204    50 196.3 4.825  20.1     0     0   546   243  1.03  0.83  43.6  39.4  0.54  0.92  0.46  0.59  0.00  0.00  0.00   2.0  0.00  0.00  0.00  0.00
 2023  53   174    81  15.3  -6.0 46.43 12.48  0.49  0.86  43.3  0.88 0.196  1.07  1348    15   232  1100   364   680     0  0.00     0     0   222    57 196.3 4.999  21.3     0     0   538   241  1.04  0.81  43.7  25.1  0.33  1.00  0.67  0.75  0.00  0.00  0.00   2.0  0.00  0.00  0.00  0.00
 2023  54   175    82  16.1  -6.0 47.24 12.48  0.48  0.83  40.9  0.85 0.199  1.05  1385    15   237  1133   353   716     0  0.00     0     0   239    64 196.3 5.187  22.4     0     0   529   240  1.06  0.81  43.9  25.0  0.31  1.00  0.69  0.76  0.00  0.00  0.00   2.0  0.00  0.00  0.00  0.00
 2023  55   176    83  13.1  -6.0 47.90 12.48  0.47  1.37  42.5  0.82 0.202  1.02  1425    15   241  1169   344   754     0  0.00     0     0   257    71 196.3 5.343  23.4     0     0   523   239  1.06  0.84  44.0  42.5  0.52  0.96  0.48  0.60  0.00  0.00  0.00   2.0  0.00  0.00  0.00  0.00
 2023  56   177    84  15.6  -6.0 48.68 12.48  0.46  1.31  39.2  0.79 0.204  1.00  1462    15   244  1202   334   790     0  0.00     0     0   273    78 196.3 5.531  24.3     0     0   515   238  1.07  0.84  44.2  42.1  0.50  1.00  0.50  0.62  0.00  0.00  0.00   2.0  0.00  0.00  0.00  0.00
 2023  57   178    85  17.0  -6.0 49.53 12.48  0.44  0.79  37.5  0.77 0.207  0.97  1496    15   248  1233   324   810     0  0.00    14    14   290    84 196.3 5.738  25.2     0     0   508   236  1.09  0.82  44.5  26.2  0.30  1.00  0.70  0.77  0.00  0.00  0.00   2.0  0.00  0.00  0.00  0.00
 2023  58   179    86  16.0  -6.0 51.51 12.48  0.43  0.80  37.1  0.74 0.209  0.95  1531    15   252  1264   315   822     0  0.00    35    28   305    91 196.3 5.937  26.1     0     0   500   235  1.10  0.83  44.8  27.3  0.30  1.00  0.70  0.77  0.00  0.00  0.00   2.0  0.00  0.00  0.00  0.00
 2023  59   180    87  16.1  -6.0 55.23 12.48  0.42  0.91  36.2  0.72 0.213  0.93  1564    15   255  1294   307   833     0  0.00    57    42   320    96 196.3 6.139  26.7     0     0   493   234  1.11  0.84  45.1  31.7  0.34  1.00  0.66  0.74  0.00  0.00  0.00   2.0  0.00  0.00  0.00  0.00
 2023  60   181    88  12.6  -6.0 58.15 12.48  0.42  2.64  35.2  0.71 0.217  0.93  1598    15   257  1326   307   843     0  0.00    79    56   331    97 196.3 6.301  26.9     0     0   488   233  1.11  0.92  45.3  99.9  1.11  0.00  0.00  0.15  0.00  0.00  0.00   2.0  0.00  0.00  0.00  0.00
 2023  61   182    89  14.6  -6.0 65.11 12.48  0.41  0.80  36.5  0.69 0.221  0.91  1632    15   260  1357   299   854     0  0.00   101    71   345   103 196.3 6.488  27.5     0     0   482   232  1.12  0.85  45.5  29.5  0.30  1.00  0.70  0.77  0.00  0.00  0.00   2.0  0.00  0.00  0.00  0.00
 2023  62   183    90  14.9  -6.0 70.42 12.48  0.40  0.77  35.1  0.67 0.225  0.90  1665    15   262  1388   292   865     0  0.00   123    84   359   108 196.3 6.682  28.1     0     0   476   231  1.13  0.86  45.7  29.1  0.29  1.00  0.71  0.78  0.00  0.00  0.00   2.0  0.00  0.00  0.00  0.00
 2023  63   184    91  14.5  -6.0 71.13 12.48  0.39  0.77  34.3  0.65 0.229  0.88  1698    15   265  1418   285   874     1  0.00   144    99   372   112 196.3 6.871  28.5  3622 .0000   471   230  1.14  0.87  46.0  29.6  0.29  1.00  0.71  0.78  0.00  0.00  0.00   2.0  0.00  0.00  0.00  0.00
 2023  64   185    92  15.5  -6.0 71.89 12.48  0.38  0.74  32.8  0.64 0.233  0.87  1729    15   267  1447   278   881     5  0.00   165   117   381   117 196.3 7.077  28.8  3622 .0001   465   229  1.15  0.88  46.3  29.3  0.28  1.00  0.72  0.78  0.00  0.00  0.00   2.0  0.00  0.00  0.00  0.00
 2023  65   186    93  16.9  -6.0 72.72 12.48  0.38  0.75  31.4  0.62 0.236  0.85  1758    15   269  1475   271   884    13  0.01   184   137   387   122 196.3 7.302  28.9  3622 .0004   459   227  1.16  0.89  46.6  30.6  0.28  1.00  0.72  0.78  0.00  0.00  0.00   2.0  0.00  0.00  0.00  0.00
 2023  66   187    94  16.9  -6.0 73.55 12.48  0.37  0.97  30.8  0.60 0.240  0.84  1788    15   270  1503   264   885    24  0.02   202   161   389   127 196.3 7.528  28.8  3622 .0007   453   226  1.18  0.91  47.0  40.6  0.37  1.00  0.63  0.72  0.00  0.00  0.00   2.0  0.00  0.00  0.00  0.00
 2023  67   188    95  18.4  -6.0 74.45 12.48  0.36  0.81  29.3  0.58 0.238  0.82  1816    15   271  1530   257   888    40  0.03   213   177   405   132 196.3 7.777  29.8  3622 .0011   446   225  1.19  0.92  47.4  34.9  0.31  1.00  0.69  0.76  0.00  0.00  0.00   2.0  0.00  0.00  0.00  0.00
 2023  68   189    96  19.7  -6.0 75.42 12.48  0.35  0.72  27.9  0.56 0.237  0.80  1843    15   272  1556   250   893    61  0.04   215   198   415   137 196.3 8.044  30.5  3622 .0017   440   224  1.20  0.93  47.9  32.3  0.27  1.00  0.73  0.79  0.00  0.00  0.00   2.0  0.00  0.00  0.00  0.00
 2023  69   190    97  19.4  -6.0 76.37 12.48  0.34  0.70  27.4  0.54 0.235  0.78  1869    15   273  1581   244   894    86  0.05   216   223   420   141 196.3 8.307  31.0  3622 .0024   434   222  1.20  0.94  47.6  31.8  0.26  1.00  0.74  0.80  0.00  0.00  0.00   2.0  0.00  0.00  0.00  0.00
 2023  70   191    98  19.6  -6.0 77.33 12.48  0.33  0.71  26.6  0.52 0.234  0.76  1895    15   273  1607   237   891   116  0.07   216   253   420   146 196.3 8.575  31.2  3622 .0032   428   221  1.20  0.96  47.2  32.6  0.27  1.00  0.73  0.79  0.00  0.00  0.00   2.0  0.00  0.00  0.00  0.00
 2023  71   192    99  22.8  -6.0 78.45 12.48  0.32  0.67  24.5  0.51 0.232  0.74  1919    15   273  1631   230   879   157  0.10   214   294   408   151 196.3 8.886  30.9  3622 .0043   421   220  1.20  0.97  46.8  31.5  0.25  1.00  0.75  0.80  0.00  0.00  0.00   2.0  0.00  0.18  0.00  0.00
 2023  72   193   100  22.0  -6.0 79.53 12.48  0.31  0.67  24.3  0.49 0.230  0.72  1943    15   273  1654   223   864   202  0.12   211   338   392   156 196.3 9.187  30.2  3622 .0056   415   218  1.20  0.98  46.4  32.1  0.25  1.00  0.75  0.80  0.00  0.00  0.00   2.0  0.00  0.13  0.00  0.00
 2023  73   194   101  19.8  -6.0 80.18 12.48  0.30  0.68  24.6  0.47 0.229  0.70  1967    15   273  1679   217   848   247  0.15   207   384   375   160 196.3 9.457  29.5  3622 .0068   410   217  1.20  0.98  46.0  33.1  0.26  1.00  0.74  0.80  0.00  0.00  0.00   2.0  0.00  0.00  0.00  0.00
 2023  74   195   102  19.5  -6.0 80.52 12.48  0.30  0.78  24.1  0.46 0.227  0.69  1991    15   273  1702   212   829   295  0.17   203   432   354   163 196.3 9.723  28.5  3622 .0081   404   216  1.20  0.98  45.6  38.7  0.30  1.00  0.70  0.77  0.00  0.00  0.00   2.0  0.00  0.00  0.00  0.00
 2023  75   196   103  20.5  -6.0 80.89 12.48  0.29  0.84  23.3  0.45 0.226  0.67  2014    15   273  1725   208   809   345  0.20   197   482   330   166 196.3 10.00  27.2  3622 .0095   399   215  1.20  0.98  45.3  42.4  0.32  1.00  0.68  0.75  0.00  0.00  0.00   2.0  0.00  0.03  0.00  0.00
 2023  76   197   104  20.0  -6.0 81.24 12.48  0.29  2.02  23.3  0.44 0.225  0.67  2037    15   273  1748   208   788   394  0.23   192   531   304   167 196.3 10.28  25.6  3622 .0109   395   214  1.20  0.98  56.2  99.9  0.76  0.47  0.24  0.41  0.00  0.00  0.00   2.0  0.00  0.00  0.00  0.00
 2023  77   198   105  19.0  -6.0 81.57 12.48  0.29  2.65  82.9  0.44 0.223  0.66  2119    15   274  1829   208   814   441  0.24   199   578   339   167 196.3 10.54  27.8  3622 .0122   390   213  1.20  0.98  81.9  67.8  2.30  0.00  0.00  0.00  0.00  0.00  0.00   2.0  0.00  0.00  0.00  0.00
 2023  78   199   106  19.0  -6.0 81.91 12.48  0.28  2.65  86.6  0.44 0.222  0.66  2204    15   275  1914   207   844   487  0.25   207   624   378   168 196.3 10.80  30.0  3622 .0135   386   211  1.20  0.98  78.4  62.4  5.42  0.00  0.00  0.00  0.00  0.00  0.00   2.0  0.00  0.00  0.00  0.00
 2023  79   200   107  19.0  -6.0 82.25 12.48  0.28  2.65  85.4  0.44 0.221  0.66  2289    15   276  1998   207   873   534  0.27   215   671   415   168 196.3 11.06  32.0  3622 .0147   382   210  1.20  0.98  77.0  63.3  5.75  0.00  0.00  0.00  0.00  0.00  0.00   2.0  0.00  0.00  0.00  0.00
 2023  80   201   108  20.1  -6.0 82.60 12.48  0.28  2.65  84.3  0.43 0.219  0.65  2372    15   276  2080   207   899   583  0.28   223   720   449   169 196.3 11.34  33.8  3622 .0161   378   209  1.20  0.98  75.7  62.8  5.67  0.00  0.00  0.00  0.00  0.00  0.00   2.0  0.00  0.01  0.00  0.00
 2023  81   202   109  20.2  -6.0 82.96 12.48  0.28  2.65  83.9  0.43 0.218  0.65  2455    15   277  2163   207   924   633  0.29   230   770   482   169 196.3 11.62  35.4  3622 .0175   374   208  1.20  0.98  74.3  60.5  4.88  0.00  0.00  0.00  0.00  0.00  0.00   2.0  0.00  0.02  0.00  0.00
 2023  82   203   110  19.6  -6.0 83.30 12.48  0.28  2.65  86.8  0.43 0.217  0.65  2541    15   278  2248   207   952   681  0.30   238   818   519   170 196.3 11.89  37.2  3622 .0188   370   207  1.20  0.98  73.0  58.6  4.11  0.00  0.00  0.00  0.00  0.00  0.00   2.0  0.00  0.00  0.00  0.00
 2023  83   204   111  17.6  -6.0 83.61 12.48  0.28  2.65  92.3  0.43 0.216  0.64  2632    15   279  2338   206   989   724  0.31   248   861   567   170 196.3 12.13  39.3  3622 .0200   367   206  1.20  0.98  71.6  56.2  3.52  0.00  0.00  0.00  0.00  0.00  0.00   2.0  0.00  0.00  0.00  0.00
 2023  84   205   112  17.1  -6.0 83.92 12.48  0.28  2.65  88.2  0.42 0.215  0.64  2719    15   280  2424   206  1024   766  0.32   258   903   612   170 196.3 12.37  41.1  3622 .0212   364   206  1.20  0.98  70.3  58.3  3.32  0.00  0.00  0.00  0.00  0.00  0.00   2.0  0.00  0.00  0.00  0.00
 2023  85   206   113  17.5  -6.0 84.22 12.48  0.28  2.65  88.5  0.42 0.214  0.64  2807    15   280  2511   206  1058   809  0.32   267   946   656   171 196.3 12.62  42.9  3622 .0223   361   205  1.20  0.98  69.0  56.0  2.94  0.00  0.00  0.00  0.00  0.00  0.00   2.0  0.00  0.00  0.00  0.00
 2023  86   207   114  17.5  -6.0 84.53 12.48  0.27  2.65  68.5  0.42 0.213  0.63  2875    15   281  2578   206  1076   852  0.33   273   989   681   171 196.3 12.86  43.8  3622 .0235   358   204  1.20  0.98  67.9  71.3  3.31  0.00  0.00  0.00  0.00  0.00  0.00   2.0  0.00  0.00  0.00  0.00
 2023  87   208   115  18.8  -6.0 84.86 12.48  0.27  2.65  82.0  0.42 0.212  0.63  2956    15   282  2659   206  1103   898  0.34   280  1035   716   172 196.3 13.13  45.0  3622 .0248   355   203  1.20  0.98  66.7  57.0  2.42  0.00  0.00  0.00  0.00  0.00  0.00   2.0  0.00  0.00  0.00  0.00
 2023  88   209   116  18.0  -6.0 85.18 12.48  0.27  2.65  84.5  0.42 0.211  0.63  3039    15   282  2741   205  1133   942  0.34   288  1079   755   172 196.3 13.38  46.4  3622 .0260   352   202  1.20  0.98  65.4  54.8  2.10  0.00  0.00  0.00  0.00  0.00  0.00   2.0  0.00  0.00  0.00  0.00
 2023  89   210   117  19.3  -6.0 85.52 12.48  0.27  2.65  83.1  0.41 0.210  0.62  3121    15   283  2823   205  1160   990  0.35   296  1126   789   173 196.3 13.65  47.5  3622 .0273   349   201  1.20  0.98  64.2  53.6  1.85  0.00  0.00  0.00  0.00  0.00  0.00   2.0  0.00  0.00  0.00  0.00
 2023  90   211   118  18.7  -6.0 85.85 12.48  0.26  2.65  91.3  0.39 0.209  0.60  3212    15   284  2912   195  1196  1035  0.36   307  1172   839   179 196.3 13.92  49.4  3622 .0286   347   201  1.20  0.98  62.8  48.6  1.52  0.00  0.00  0.00  0.00  0.00  0.00   2.0  0.00  0.00  0.00  0.00
 2023  91   212   119  19.4  -6.0 86.19 12.48  0.25  2.65  84.7  0.37 0.208  0.58  3295    15   285  2995   185  1225  1083  0.36   317  1220   881   185 196.3 14.19  51.0  3622 .0299   344   200  1.20  0.98  61.5  50.2  1.42  0.00  0.00  0.00  0.00  0.00  0.00   2.0  0.00  0.00  0.00  0.00
 2023  92   213   120  20.8  -6.0 86.56 12.48  0.23  2.65  78.8  0.35 0.207  0.55  3373    15   285  3073   175  1247  1134  0.37   325  1271   913   191 196.3 14.49  52.3  3622 .0313   341   199  1.20  0.98  60.3  51.5  1.33  0.00  0.00  0.00  0.00  0.00  0.00   2.0  0.00  0.06  0.00  0.00
 2023  93   214   121  18.6  -6.0 86.89 12.48  0.22  2.65  71.3  0.32 0.206  0.53  3444    15   286  3142   164  1268  1180  0.38   332  1317   944   198 196.3 14.75  53.5  3622 .0326   339   198  1.20  0.98  59.2  58.1  1.37  0.00  0.00  0.00  0.00  0.00  0.00   2.0  0.00  0.00  0.00  0.00
 2023  94   215   122  17.1  -6.0 87.19 12.48  0.21  2.65  73.8  0.30 0.205  0.51  3517    15   287  3215   154  1294  1222  0.38   340  1359   981   204 196.3 15.00  54.8  3622 .0337   337   197  1.20  0.98  58.2  57.9  1.27  0.00  0.00  0.03  0.00  0.00  0.00   2.0  0.00  0.00  0.00  0.00
 2023  95   216   123  15.9  -6.0 87.47 12.48  0.20  2.65  68.4  0.28 0.204  0.49  3584    15   287  3282   145  1318  1260  0.38   349  1397  1015   210 196.3 15.23  56.0  3622 .0348   335   196  1.20  0.98  57.2  62.9  1.28  0.00  0.00  0.01  0.00  0.00  0.00   2.0  0.00  0.00  0.00  0.00
 2023  96   217   124  15.9  -6.0 87.75 12.48  0.18  2.65  67.7  0.27 0.203  0.47  3651    15   288  3348   136  1342  1299  0.39   356  1436  1048   215 196.3 15.45  57.1  3622 .0359   333   196  1.20  0.98  56.3  61.7  1.18  0.00  0.00  0.09  0.00  0.00  0.00   2.0  0.00  0.00  0.00  0.00
 2023  97   218   125  17.3  -6.0 88.06 12.48  0.17  2.65  63.9  0.25 0.203  0.45  3714    15   288  3411   128  1359  1341  0.39   362  1478  1073   220 196.3 15.70  58.0  3622 .0370   331   195  1.20  0.98  55.4  62.5  1.13  0.00  0.00  0.13  0.00  0.00  0.00   2.0  0.00  0.00  0.00  0.00
 2023  98   219   126  19.2  -6.0 88.40 12.48  0.16  2.65  60.7  0.23 0.201  0.43  3774    15   289  3470   118  1366  1388  0.40   368  1525  1091   229 196.3 15.98  58.9  3622 .0383   329   194  1.20  0.98  54.4  62.1  1.06  0.00  0.00  0.19  0.00  0.00  0.00   2.0  0.00  0.00  0.00  0.00
 2023  99   220   127  20.0  -6.0 88.75 12.48  0.15  2.65  56.8  0.21 0.199  0.41  3830    15   289  3526   107  1369  1437  0.41   373  1574  1104   239 196.3 16.27  59.7  3622 .0397   327   194  1.20  0.98  53.6  64.2  1.03  0.00  0.00  0.20  0.00  0.00  0.00   2.0  0.00  0.00  0.00  0.00
 2023 100   221   128  19.5  -6.0 89.09 12.48  0.13  2.65  48.2  0.19 0.198  0.38  3878    15   289  3573    96  1367  1485  0.42   376  1622  1110   249 196.3 16.55  60.4  3622 .0410   325   193  1.20  0.98  52.8  75.3  1.15  0.00  0.00  0.12  0.00  0.00  0.00   2.0  0.00  0.00  0.00  0.00
 2023 101   222   129  21.5  -6.0 89.47 12.48  0.12  2.65  45.0  0.16 0.196  0.36  3922    15   290  3617    85  1357  1538  0.43   378  1675  1108   259 196.3 16.86  60.9  3622 .0425   323   192  1.20  0.98  52.1  76.8  1.12  0.00  0.00  0.14  0.00  0.00  0.00   2.0  0.00  0.10  0.00  0.00
 2023 102   223   130  20.7  -6.0 89.84 12.48  0.10  2.65  39.7  0.14 0.194  0.33  3961    15   290  3656    73  1346  1589  0.43   379  1726  1103   269 196.3 17.16  61.4  3622 .0439   321   191  1.20  0.98  51.5  88.0  1.23  0.00  0.00  0.05  0.00  0.00  0.00   2.0  0.00  0.04  0.00  0.00
 2023 103   224   131  20.1  -6.0 90.54 12.48  0.09  2.65  28.9  0.12 0.192  0.31  3989    15   290  3684    62  1348  1612  0.44   384  1749  1115   279 196.3 17.45  62.2  3622 .0445   320   190  1.20  0.98  51.1  99.9  1.66  0.00  0.00  0.00  0.00  0.00  0.00   2.0  0.00  0.01  0.00  0.00
