*SIMULATION OVERVIEW FILE
  

*DSSAT Cropping System Model Ver. 4.8.2.000 -release  JUN 21, 2025 19:12:05

*RUN   1        : WW23_G-1                  CSCER048 CIOB2301    1
 MODEL          : CSCER048 - Wheat
 EXPERIMENT     : CIOB2301 WH ROOTS ANATOMY
 DATA PATH      : C:\DSSAT48\Wheat\
 TREATMENT  1   : WW23_G-1                  CSCER048


 CROP           : Wheat            CULTIVAR : ENTRY 1          ECOTYPE :CI0001
 STARTING DATE  : SEP  1 2022
 PLANTING DATE  : NOV 23 2022      PLANTS/m2 :   137.0    ROW SPACING :  20.cm
 WEATHER        : CIOB   2022
 SOIL           : CCENEB2301     TEXTURE : C     -   CIMMYT CENEB 710
 SOIL INIT COND : DEPTH:120cm EXTR. H2O: 82.8mm  NO3:484.0kg/ha  NH4:341.8kg/ha
 WATER BALANCE  : IRRIGATE ON REPORTED DATE(S)
 IRRIGATION     :      525 mm IN     9 APPLICATIONS
 NITROGEN BAL.  : SOIL-N & N-UPTAKE SIMULATION; NO N-FIXATION
 N-FERTILIZER   :      323 kg/ha IN     3 APPLICATIONS
 RESIDUE/MANURE : INITIAL :     0 kg/ha ;    2222 kg/ha IN     1 APPLICATIONS
 ENVIRONM. OPT. : DAYL=    0.00  SRAD=    0.00  TMAX=    0.00  TMIN=    0.00
                  RAIN=    0.00  CO2 =    0.00  DEW =    0.00  WIND=    0.00
 SIMULATION OPT : WATER   :Y  NITROGEN:Y  N-FIX:N  PHOSPH :N  PESTS  :N
                  PHOTO   :C  ET      :R  INFIL:S  HYDROL :R  SOM    :G
                  CO2 418ppm  NSWIT   :1  EVAP :R  SOIL   :2  STEMP  :D
 MANAGEMENT OPT : PLANTING:R  IRRIG   :R  FERT :R  RESIDUE:R  HARVEST:M
                  WEATHER :M  TILLAGE :Y

*SUMMARY OF SOIL AND GENETIC INPUT PARAMETERS

   SOIL LOWER UPPER   SAT  EXTR  INIT   ROOT   BULK     pH    NO3    NH4    ORG
  DEPTH LIMIT LIMIT    SW    SW    SW   DIST   DENS                          C
   cm   cm3/cm3    cm3/cm3    cm3/cm3         g/cm3         ugN/g  ugN/g     %
-------------------------------------------------------------------------------
  0-  5 0.143 0.204 0.268 0.061 0.172   1.00   1.35   8.50  29.00  29.00   1.08
  5- 15 0.143 0.204 0.268 0.061 0.172   1.00   1.35   8.50  29.00  29.00   1.08
 15- 30 0.143 0.204 0.268 0.061 0.172   1.00   1.35   8.50  29.00  29.00   1.08
 30- 45 0.166 0.234 0.274 0.068 0.225   0.41   1.58   8.50  27.00  16.00   0.80
 45- 60 0.166 0.234 0.274 0.068 0.225   0.41   1.58   8.50  27.00  16.00   0.80
 60- 90 0.155 0.227 0.276 0.072 0.207   0.22   1.50   7.90  53.00  33.00   0.87
 90-120 0.188 0.263 0.308 0.075 0.263   0.12   1.38   8.00   0.01   0.01   0.40

TOT-120  19.6  27.8  33.8   8.3  26.0  <--cm   -  kg/ha-->  484.0  341.8 137370
SOIL ALBEDO    : 0.13      EVAPORATION LIMIT : 6.00         MIN. FACTOR  : 1.00
RUNOFF CURVE # :61.00      DRAINAGE RATE     : 0.60         FERT. FACTOR : 1.00

 Wheat            CULTIVAR: 555175-ENTRY 1            ECOTYPE: CI0001
   P1V   P1D    P5    G1    G2    G3 PHINT
   2.0  22.2 578.9  19.1  48.5  4.76  83.4


*SIMULATED CROP AND SOIL STATUS AT MAIN DEVELOPMENT STAGES
  
 RUN NO.      1   ROOTS ANATOMY                                               

 ...... DATE ......  GROWTH STAGE BIOMASS   LEAF       CROP N      STRESS
 YEARDOY DOM MON DAP ............. kg/ha AREA NUMBER  kg/ha   %   H2O    N
 2022327  23 Nov   0 7 Sowing         0  0.00   0.0     0   0.0  0.00  0.00
 2022328  24 Nov   1 8 Germinate      0  0.00   0.0     0   0.0  0.00  0.00
 2022330  26 Nov   3 9 Emergence      0  0.00   0.0     0   0.0  0.00  0.00
 2023025  25 Jan  63 1 Term Spklt  1967  3.10  13.1    90   4.6  0.25  0.10
 2023043  12 Feb  81 2 End Veg     4221  5.75  16.4   140   3.3  0.03  0.00
 2023056  25 Feb  94 3 End Ear Gr  6433  4.83  16.4   137   2.1  0.00  0.00
 2023071  12 Mar 109 4 Beg Gr Fil  9831  3.95  16.4   136   1.4  0.09  0.00
 2023102  12 Apr 140 5 End Gr Fil 17356  0.36  16.4   194   1.1  0.05  0.00
 2023102  12 Apr 140 6 Harvest    17356  0.36  16.4   194   1.1  0.23  0.00
  
 BIOMASS = Above-ground dry wt (kg/ha)
 LEAF AREA  = Leaf area index (m2/m2)
 LEAF NUMBER  = Leaf number produced on main axis
 CROP N  = Above-ground N (kg/ha)
 CROP N% = Above-ground N conc (%)
 H2O STRESS = Photosynthesis stress,average (0-1,0=none)
 N STRESS = Photosynthesis stress,average (0-1,0=none)
  

*MAIN GROWTH AND DEVELOPMENT VARIABLES

@     VARIABLE                             SIMULATED     MEASURED
      --------                             ---------     --------
      Emergence (DAP)                            3            7
      Anthesis (DAP)                            98           97
      Maturity (DAP)                           140          140
      Product wt (kg dm/ha;no loss)           6993         6797
      Product unit weight (g dm)             0.049        0.047
      Product number (no/m2)                 14418        14451
      Product number (no/group)               22.8        -99.0
      Product harvest index (ratio)           0.40         0.43
      Maximum leaf area index                  5.7          5.7
      Final leaf number (one axis)            16.4        -99.0
      Final shoot number (#/m2)                631          -99
      Canopy (tops) wt (kg dm/ha)            17356        15757
      Vegetative wt (kg dm/ha)               10363         8960
      Root wt (kg dm/ha)                      1010          -99
      Assimilate wt (kg dm/ha)               19421          -99
      Senesced wt (kg dm/ha)                   381          -99
      Reserves wt (kg dm/ha)                  5076          -99
      N uptake (kg/ha)                       215.8        -99.0
      N senesced (kg/ha)                       5.3        -99.0
      Above-ground N (kg/ha)                 194.4        -99.0
      Root N (kg/ha)                          17.0        -99.0
      Vegetative N (kg/ha)                    37.8        -99.0
      Product N (kg/ha)                      156.5        139.5
      Product N harvest index (ratio)         0.81       -99.00
      Product N (%)                            2.2          2.1
      Vegetative N (%)                         0.4        -99.0
      Leaf+stem wt,anthesis (kg dm/ha)        7229          -99
      Leaf+stem N,anthesis (kg/ha)           136.5        -99.0
      Leaf N,anthesis (%)                      3.0        -99.0

  Seed N must be added to N uptake to obtain a         
  balance with N in above-ground plus root material    

  Measured data are obtained from the A file,either    
  directly or by calculation from other other variables
  using the expressions given below:                   
                                                       
  Product wt       Harvest wt (HWAH) /                 
                               (Harvest%/100) (HPC)    
  Canopy wt        Grain wt (HWAM)+Vegetative wt (VWAm)
  Vegetative wt    Canopy wt (CWAM) - grain wt (HWAM)  
    = leaf+stem+retained dead material                 
  Product unit wt  Grain yield (HWAM)/Grain # (G#AM)   
  Product #/area   Product#/tiller (H#SM) *            
                                   tiller number (T#AM)
  Product #/group  Product#/area (H#AM) /              
                                tiller number (T#AM)   
  Harvest index    Product wt (HWAM)/Canopy wt.(CWAM)  
                                                       
  The same procedure is followed for nitrogen aspects  


*ENVIRONMENTAL AND STRESS FACTORS

 |-----Development Phase------|-------------Environment--------------|----------------Stress-----------------|
                              |--------Average-------|---Cumulative--|         (0=Min, 1=Max Stress)         |
                         Time  Temp  Temp Solar Photop         Evapo |----Water---|--Nitrogen--|--Phosphorus-|
                         Span   Max   Min   Rad  [day]   Rain  Trans  Photo         Photo         Photo
                         days    °C    °C MJ/m2     hr     mm     mm  synth Growth ' synth Growth  synth Growth
--------------------------------------------------------------------------------------------------------------
 Germinate  - Term Spklt   60  26.3   7.2  14.3  11.35   10.0   94.1  0.253  0.354  0.097  0.097 -99.00 -99.00
 Term Spklt - End Veg      18  25.7   5.6  15.7  11.73    0.1   54.2  0.028  0.056  0.000  0.000 -99.00 -99.00
 End Veg    - End Ear Gr   13  22.7   8.0  14.8  12.06   12.1   37.1  0.000  0.000  0.000  0.000 -99.00 -99.00
 End Ear Gr - Beg Gr Fil   15  27.3   6.7  20.1  12.41    0.1   56.2  0.089  0.139  0.000  0.000 -99.00 -99.00
 Beg Gr Fil - End Gr Fil   31  29.2   8.8  23.2  13.04   65.8  127.2  0.049  0.088  0.000  0.000 -99.00 -99.00
  
 Germinate  - End Gr Fil  137  26.7   7.4  17.2  11.96   88.1  368.7  0.136  0.197  0.043  0.043 -99.00 -99.00
--------------------------------------------------------------------------------------------------------------


*RESOURCE PRODUCTIVITY

 Growing season length: 137 days 

 Precipitation during growth season         88.1 mm[rain]
   Dry Matter Productivity                 19.70 kg[DM]/m3[rain]          =  197.0 kg[DM]/ha per mm[rain]
   Yield Productivity                       7.94 kg[grain yield]/m3[rain] =   79.4 kg[yield]/ha per mm[rain]

 Evapotranspiration during growth season   368.7 mm[ET]
   Dry Matter Productivity                  4.71 kg[DM]/m3[ET]            =   47.1 kg[DM]/ha per mm[ET]
   Yield Productivity                       1.90 kg[grain yield]/m3[ET]   =   19.0 kg[yield]/ha per mm[ET]

 Transpiration during growth season        306.1 mm[EP]
   Dry Matter Productivity                  5.67 kg[DM]/m3[EP]            =   56.7 kg[DM]/ha per mm[EP]
   Yield Productivity                       2.28 kg[grain yield]/m3[EP]   =   22.8 kg[yield]/ha per mm[EP]

 Irrigation during growing season          525.1 mm[irrig]
   Dry Matter Productivity                  3.31 kg[DM]/m3[irrig]         =   33.1 kg[DM]/ha per mm[irrig]
   Yield Productivity                       1.33 kg[grain yield]/m3[irrig]=   13.3 kg[yield]/ha per mm[irrig]

 N applied during growing season           323.0 kg[N applied]/ha
   Dry Matter Productivity                  53.7 kg[DM]/kg[N applied]
   Yield Productivity                       21.6 kg[yield]/kg[N applied]

 N uptake during growing season            215.8 kg[N uptake]/ha
   Dry Matter Productivity                  80.4 kg[DM]/kg[N uptake]
   Yield Productivity                       32.4 kg[yield]/kg[N uptake]

--------------------------------------------------------------------------------------------------------------

          WHEAT YIELD :     6993 kg/ha    [Dry weight] 

**************************************************************************************************************
  

*DSSAT Cropping System Model Ver. 4.8.2.000 -release  JUN 21, 2025 19:12:05

*RUN   2        : WW23_G-2                  CSCER048 CIOB2301    2
 MODEL          : CSCER048 - Wheat
 EXPERIMENT     : CIOB2301 WH ROOTS ANATOMY
 DATA PATH      : C:\DSSAT48\Wheat\
 TREATMENT  2   : WW23_G-2                  CSCER048


 CROP           : Wheat            CULTIVAR : ENTRY 2          ECOTYPE :CI0001
 STARTING DATE  : SEP  1 2022
 PLANTING DATE  : NOV 23 2022      PLANTS/m2 :   137.0    ROW SPACING :  20.cm
 WEATHER        : CIOB   2022
 SOIL           : CCENEB2301     TEXTURE : C     -   CIMMYT CENEB 710
 SOIL INIT COND : DEPTH:120cm EXTR. H2O: 82.8mm  NO3:484.0kg/ha  NH4:341.8kg/ha
 WATER BALANCE  : IRRIGATE ON REPORTED DATE(S)
 IRRIGATION     :      525 mm IN     9 APPLICATIONS
 NITROGEN BAL.  : SOIL-N & N-UPTAKE SIMULATION; NO N-FIXATION
 N-FERTILIZER   :      323 kg/ha IN     3 APPLICATIONS
 RESIDUE/MANURE : INITIAL :     0 kg/ha ;    2222 kg/ha IN     1 APPLICATIONS
 ENVIRONM. OPT. : DAYL=    0.00  SRAD=    0.00  TMAX=    0.00  TMIN=    0.00
                  RAIN=    0.00  CO2 =    0.00  DEW =    0.00  WIND=    0.00
 SIMULATION OPT : WATER   :Y  NITROGEN:Y  N-FIX:N  PHOSPH :N  PESTS  :N
                  PHOTO   :C  ET      :R  INFIL:S  HYDROL :R  SOM    :G
                  CO2 418ppm  NSWIT   :1  EVAP :R  SOIL   :2  STEMP  :D
 MANAGEMENT OPT : PLANTING:R  IRRIG   :R  FERT :R  RESIDUE:R  HARVEST:M
                  WEATHER :M  TILLAGE :Y

*SUMMARY OF SOIL AND GENETIC INPUT PARAMETERS

   SOIL LOWER UPPER   SAT  EXTR  INIT   ROOT   BULK     pH    NO3    NH4    ORG
  DEPTH LIMIT LIMIT    SW    SW    SW   DIST   DENS                          C
   cm   cm3/cm3    cm3/cm3    cm3/cm3         g/cm3         ugN/g  ugN/g     %
-------------------------------------------------------------------------------
  0-  5 0.143 0.204 0.268 0.061 0.172   1.00   1.35   8.50  29.00  29.00   1.08
  5- 15 0.143 0.204 0.268 0.061 0.172   1.00   1.35   8.50  29.00  29.00   1.08
 15- 30 0.143 0.204 0.268 0.061 0.172   1.00   1.35   8.50  29.00  29.00   1.08
 30- 45 0.166 0.234 0.274 0.068 0.225   0.41   1.58   8.50  27.00  16.00   0.80
 45- 60 0.166 0.234 0.274 0.068 0.225   0.41   1.58   8.50  27.00  16.00   0.80
 60- 90 0.155 0.227 0.276 0.072 0.207   0.22   1.50   7.90  53.00  33.00   0.87
 90-120 0.188 0.263 0.308 0.075 0.263   0.12   1.38   8.00   0.01   0.01   0.40

TOT-120  19.6  27.8  33.8   8.3  26.0  <--cm   -  kg/ha-->  484.0  341.8 137370
SOIL ALBEDO    : 0.13      EVAPORATION LIMIT : 6.00         MIN. FACTOR  : 1.00
RUNOFF CURVE # :61.00      DRAINAGE RATE     : 0.60         FERT. FACTOR : 1.00

 Wheat            CULTIVAR: 457793-ENTRY 2            ECOTYPE: CI0001
   P1V   P1D    P5    G1    G2    G3 PHINT
   2.0  22.4 547.8  21.4  42.5  8.00  96.1


*SIMULATED CROP AND SOIL STATUS AT MAIN DEVELOPMENT STAGES
  
 RUN NO.      2   ROOTS ANATOMY                                               

 ...... DATE ......  GROWTH STAGE BIOMASS   LEAF       CROP N      STRESS
 YEARDOY DOM MON DAP ............. kg/ha AREA NUMBER  kg/ha   %   H2O    N
 2022327  23 Nov   0 7 Sowing         0  0.00   0.0     0   0.0  0.00  0.00
 2022328  24 Nov   1 8 Germinate      0  0.00   0.0     0   0.0  0.00  0.00
 2022330  26 Nov   3 9 Emergence      0  0.00   0.0     0   0.0  0.00  0.00
 2023025  25 Jan  63 1 Term Spklt  2039  3.32  11.5    95   4.6  0.27  0.10
 2023043  12 Feb  81 2 End Veg     4302  6.13  14.4   143   3.3  0.03  0.00
 2023056  25 Feb  94 3 End Ear Gr  6521  5.14  14.4   140   2.2  0.00  0.00
 2023071  12 Mar 109 4 Beg Gr Fil  9938  4.19  14.4   139   1.4  0.09  0.00
 2023101  11 Apr 139 5 End Gr Fil 17341  0.21  14.4   195   1.1  0.01  0.00
 2023101  11 Apr 139 6 Harvest    17341  0.21  14.4   195   1.1  0.00  0.00
  

*MAIN GROWTH AND DEVELOPMENT VARIABLES

@     VARIABLE                             SIMULATED     MEASURED
      --------                             ---------     --------
      Emergence (DAP)                            3            7
      Anthesis (DAP)                            98           96
      Maturity (DAP)                           139          139
      Product wt (kg dm/ha;no loss)           6945         6933
      Product unit weight (g dm)             0.043        0.042
      Product number (no/m2)                 16341        16392
      Product number (no/group)               33.9        -99.0
      Product harvest index (ratio)           0.40         0.41
      Maximum leaf area index                  6.1          6.1
      Final leaf number (one axis)            14.4        -99.0
      Final shoot number (#/m2)                482          -99
      Canopy (tops) wt (kg dm/ha)            17341        16796
      Vegetative wt (kg dm/ha)               10396         9863
      Root wt (kg dm/ha)                      1024          -99
      Assimilate wt (kg dm/ha)               19413          -99
      Senesced wt (kg dm/ha)                   365          -99
      Reserves wt (kg dm/ha)                  5115          -99
      N uptake (kg/ha)                       216.6        -99.0
      N senesced (kg/ha)                       5.1        -99.0
      Above-ground N (kg/ha)                 195.1        -99.0
      Root N (kg/ha)                          17.2        -99.0
      Vegetative N (kg/ha)                    37.1        -99.0
      Product N (kg/ha)                      158.0        142.3
      Product N harvest index (ratio)         0.81       -99.00
      Product N (%)                            2.3          2.1
      Vegetative N (%)                         0.4        -99.0
      Leaf+stem wt,anthesis (kg dm/ha)        7320          -99
      Leaf+stem N,anthesis (kg/ha)           139.7        -99.0
      Leaf N,anthesis (%)                      3.0        -99.0

*ENVIRONMENTAL AND STRESS FACTORS

 |-----Development Phase------|-------------Environment--------------|----------------Stress-----------------|
                              |--------Average-------|---Cumulative--|         (0=Min, 1=Max Stress)         |
                         Time  Temp  Temp Solar Photop         Evapo |----Water---|--Nitrogen--|--Phosphorus-|
                         Span   Max   Min   Rad  [day]   Rain  Trans  Photo         Photo         Photo
                         days    °C    °C MJ/m2     hr     mm     mm  synth Growth ' synth Growth  synth Growth
--------------------------------------------------------------------------------------------------------------
 Germinate  - Term Spklt   60  26.3   7.2  14.3  11.35   10.0   94.8  0.266  0.364  0.096  0.096 -99.00 -99.00
 Term Spklt - End Veg      18  25.7   5.6  15.7  11.73    0.1   54.2  0.028  0.056  0.000  0.000 -99.00 -99.00
 End Veg    - End Ear Gr   13  22.7   8.0  14.8  12.06   12.1   37.1  0.000  0.000  0.000  0.000 -99.00 -99.00
 End Ear Gr - Beg Gr Fil   15  27.3   6.7  20.1  12.41    0.1   56.2  0.089  0.138  0.000  0.000 -99.00 -99.00
 Beg Gr Fil - End Gr Fil   30  29.1   8.8  23.1  13.02   65.8  124.9  0.006  0.038  0.000  0.000 -99.00 -99.00
  
 Germinate  - End Gr Fil  136  26.6   7.3  17.1  11.95   88.1  367.1  0.132  0.191  0.042  0.042 -99.00 -99.00
--------------------------------------------------------------------------------------------------------------


*RESOURCE PRODUCTIVITY

 Growing season length: 136 days 

 Precipitation during growth season         88.1 mm[rain]
   Dry Matter Productivity                 19.68 kg[DM]/m3[rain]          =  196.8 kg[DM]/ha per mm[rain]
   Yield Productivity                       7.88 kg[grain yield]/m3[rain] =   78.8 kg[yield]/ha per mm[rain]

 Evapotranspiration during growth season   367.1 mm[ET]
   Dry Matter Productivity                  4.72 kg[DM]/m3[ET]            =   47.2 kg[DM]/ha per mm[ET]
   Yield Productivity                       1.89 kg[grain yield]/m3[ET]   =   18.9 kg[yield]/ha per mm[ET]

 Transpiration during growth season        307.0 mm[EP]
   Dry Matter Productivity                  5.65 kg[DM]/m3[EP]            =   56.5 kg[DM]/ha per mm[EP]
   Yield Productivity                       2.26 kg[grain yield]/m3[EP]   =   22.6 kg[yield]/ha per mm[EP]

 Irrigation during growing season          525.1 mm[irrig]
   Dry Matter Productivity                  3.30 kg[DM]/m3[irrig]         =   33.0 kg[DM]/ha per mm[irrig]
   Yield Productivity                       1.32 kg[grain yield]/m3[irrig]=   13.2 kg[yield]/ha per mm[irrig]

 N applied during growing season           323.0 kg[N applied]/ha
   Dry Matter Productivity                  53.7 kg[DM]/kg[N applied]
   Yield Productivity                       21.5 kg[yield]/kg[N applied]

 N uptake during growing season            216.6 kg[N uptake]/ha
   Dry Matter Productivity                  80.1 kg[DM]/kg[N uptake]
   Yield Productivity                       32.1 kg[yield]/kg[N uptake]

--------------------------------------------------------------------------------------------------------------

          WHEAT YIELD :     6945 kg/ha    [Dry weight] 

**************************************************************************************************************
  

*DSSAT Cropping System Model Ver. 4.8.2.000 -release  JUN 21, 2025 19:12:05

*RUN   3        : WW23_G-3                  CSCER048 CIOB2301    3
 MODEL          : CSCER048 - Wheat
 EXPERIMENT     : CIOB2301 WH ROOTS ANATOMY
 DATA PATH      : C:\DSSAT48\Wheat\
 TREATMENT  3   : WW23_G-3                  CSCER048


 CROP           : Wheat            CULTIVAR : ENTRY 3          ECOTYPE :CI0001
 STARTING DATE  : SEP  1 2022
 PLANTING DATE  : NOV 23 2022      PLANTS/m2 :   137.0    ROW SPACING :  20.cm
 WEATHER        : CIOB   2022
 SOIL           : CCENEB2301     TEXTURE : C     -   CIMMYT CENEB 710
 SOIL INIT COND : DEPTH:120cm EXTR. H2O: 82.8mm  NO3:484.0kg/ha  NH4:341.8kg/ha
 WATER BALANCE  : IRRIGATE ON REPORTED DATE(S)
 IRRIGATION     :      525 mm IN     9 APPLICATIONS
 NITROGEN BAL.  : SOIL-N & N-UPTAKE SIMULATION; NO N-FIXATION
 N-FERTILIZER   :      323 kg/ha IN     3 APPLICATIONS
 RESIDUE/MANURE : INITIAL :     0 kg/ha ;    2222 kg/ha IN     1 APPLICATIONS
 ENVIRONM. OPT. : DAYL=    0.00  SRAD=    0.00  TMAX=    0.00  TMIN=    0.00
                  RAIN=    0.00  CO2 =    0.00  DEW =    0.00  WIND=    0.00
 SIMULATION OPT : WATER   :Y  NITROGEN:Y  N-FIX:N  PHOSPH :N  PESTS  :N
                  PHOTO   :C  ET      :R  INFIL:S  HYDROL :R  SOM    :G
                  CO2 418ppm  NSWIT   :1  EVAP :R  SOIL   :2  STEMP  :D
 MANAGEMENT OPT : PLANTING:R  IRRIG   :R  FERT :R  RESIDUE:R  HARVEST:M
                  WEATHER :M  TILLAGE :Y

*SUMMARY OF SOIL AND GENETIC INPUT PARAMETERS

   SOIL LOWER UPPER   SAT  EXTR  INIT   ROOT   BULK     pH    NO3    NH4    ORG
  DEPTH LIMIT LIMIT    SW    SW    SW   DIST   DENS                          C
   cm   cm3/cm3    cm3/cm3    cm3/cm3         g/cm3         ugN/g  ugN/g     %
-------------------------------------------------------------------------------
  0-  5 0.143 0.204 0.268 0.061 0.172   1.00   1.35   8.50  29.00  29.00   1.08
  5- 15 0.143 0.204 0.268 0.061 0.172   1.00   1.35   8.50  29.00  29.00   1.08
 15- 30 0.143 0.204 0.268 0.061 0.172   1.00   1.35   8.50  29.00  29.00   1.08
 30- 45 0.166 0.234 0.274 0.068 0.225   0.41   1.58   8.50  27.00  16.00   0.80
 45- 60 0.166 0.234 0.274 0.068 0.225   0.41   1.58   8.50  27.00  16.00   0.80
 60- 90 0.155 0.227 0.276 0.072 0.207   0.22   1.50   7.90  53.00  33.00   0.87
 90-120 0.188 0.263 0.308 0.075 0.263   0.12   1.38   8.00   0.01   0.01   0.40

TOT-120  19.6  27.8  33.8   8.3  26.0  <--cm   -  kg/ha-->  484.0  341.8 137370
SOIL ALBEDO    : 0.13      EVAPORATION LIMIT : 6.00         MIN. FACTOR  : 1.00
RUNOFF CURVE # :61.00      DRAINAGE RATE     : 0.60         FERT. FACTOR : 1.00

 Wheat            CULTIVAR: 518062-ENTRY 3            ECOTYPE: CI0001
   P1V   P1D    P5    G1    G2    G3 PHINT
   2.0  22.8 566.2  19.9  49.1  4.22  79.4


*SIMULATED CROP AND SOIL STATUS AT MAIN DEVELOPMENT STAGES
  
 RUN NO.      3   ROOTS ANATOMY                                               

 ...... DATE ......  GROWTH STAGE BIOMASS   LEAF       CROP N      STRESS
 YEARDOY DOM MON DAP ............. kg/ha AREA NUMBER  kg/ha   %   H2O    N
 2022327  23 Nov   0 7 Sowing         0  0.00   0.0     0   0.0  0.00  0.00
 2022328  24 Nov   1 8 Germinate      0  0.00   0.0     0   0.0  0.00  0.00
 2022330  26 Nov   3 9 Emergence      0  0.00   0.0     0   0.0  0.00  0.00
 2023025  25 Jan  63 1 Term Spklt  1915  2.91  13.7    88   4.6  0.25  0.10
 2023043  12 Feb  81 2 End Veg     4163  5.58  17.2   138   3.3  0.03  0.00
 2023056  25 Feb  94 3 End Ear Gr  6371  4.69  17.2   135   2.1  0.00  0.00
 2023072  13 Mar 110 4 Beg Gr Fil 10043  3.77  17.2   134   1.3  0.08  0.00
 2023101  11 Apr 139 5 End Gr Fil 17160  0.47  17.2   200   1.2  0.03  0.00
 2023101  11 Apr 139 6 Harvest    17160  0.47  17.2   200   1.2  0.23  0.00
  

*MAIN GROWTH AND DEVELOPMENT VARIABLES

@     VARIABLE                             SIMULATED     MEASURED
      --------                             ---------     --------
      Emergence (DAP)                            3            7
      Anthesis (DAP)                            98           95
      Maturity (DAP)                           139          138
      Product wt (kg dm/ha;no loss)           7313         7260
      Product unit weight (g dm)             0.049        0.049
      Product number (no/m2)                 14894        14914
      Product number (no/group)               21.3        -99.0
      Product harvest index (ratio)           0.43         0.43
      Maximum leaf area index                  5.6          5.6
      Final leaf number (one axis)            17.2        -99.0
      Final shoot number (#/m2)                700          -99
      Canopy (tops) wt (kg dm/ha)            17160        16824
      Vegetative wt (kg dm/ha)                9847         9564
      Root wt (kg dm/ha)                      1008          -99
      Assimilate wt (kg dm/ha)               19256          -99
      Senesced wt (kg dm/ha)                   416          -99
      Reserves wt (kg dm/ha)                  4557          -99
      N uptake (kg/ha)                       221.5        -99.0
      N senesced (kg/ha)                       5.8        -99.0
      Above-ground N (kg/ha)                 199.6        -99.0
      Root N (kg/ha)                          17.0        -99.0
      Vegetative N (kg/ha)                    38.3        -99.0
      Product N (kg/ha)                      161.3        139.3
      Product N harvest index (ratio)         0.81       -99.00
      Product N (%)                            2.2          1.9
      Vegetative N (%)                         0.4        -99.0
      Leaf+stem wt,anthesis (kg dm/ha)        7164          -99
      Leaf+stem N,anthesis (kg/ha)           134.6        -99.0
      Leaf N,anthesis (%)                      3.0        -99.0

*ENVIRONMENTAL AND STRESS FACTORS

 |-----Development Phase------|-------------Environment--------------|----------------Stress-----------------|
                              |--------Average-------|---Cumulative--|         (0=Min, 1=Max Stress)         |
                         Time  Temp  Temp Solar Photop         Evapo |----Water---|--Nitrogen--|--Phosphorus-|
                         Span   Max   Min   Rad  [day]   Rain  Trans  Photo         Photo         Photo
                         days    °C    °C MJ/m2     hr     mm     mm  synth Growth ' synth Growth  synth Growth
--------------------------------------------------------------------------------------------------------------
 Germinate  - Term Spklt   60  26.3   7.2  14.3  11.35   10.0   93.9  0.247  0.348  0.097  0.097 -99.00 -99.00
 Term Spklt - End Veg      18  25.7   5.6  15.7  11.73    0.1   54.3  0.027  0.054  0.000  0.000 -99.00 -99.00
 End Veg    - End Ear Gr   13  22.7   8.0  14.8  12.06   12.1   37.0  0.000  0.000  0.000  0.000 -99.00 -99.00
 End Ear Gr - Beg Gr Fil   16  27.6   7.0  20.3  12.42    0.1   61.3  0.083  0.130  0.000  0.000 -99.00 -99.00
 Beg Gr Fil - End Gr Fil   29  29.1   8.6  23.1  13.04   65.8  120.4  0.030  0.065  0.000  0.000 -99.00 -99.00
  
 Germinate  - End Gr Fil  136  26.6   7.3  17.1  11.95   88.1  366.9  0.129  0.190  0.043  0.043 -99.00 -99.00
--------------------------------------------------------------------------------------------------------------


*RESOURCE PRODUCTIVITY

 Growing season length: 136 days 

 Precipitation during growth season         88.1 mm[rain]
   Dry Matter Productivity                 19.48 kg[DM]/m3[rain]          =  194.8 kg[DM]/ha per mm[rain]
   Yield Productivity                       8.30 kg[grain yield]/m3[rain] =   83.0 kg[yield]/ha per mm[rain]

 Evapotranspiration during growth season   366.9 mm[ET]
   Dry Matter Productivity                  4.68 kg[DM]/m3[ET]            =   46.8 kg[DM]/ha per mm[ET]
   Yield Productivity                       1.99 kg[grain yield]/m3[ET]   =   19.9 kg[yield]/ha per mm[ET]

 Transpiration during growth season        302.9 mm[EP]
   Dry Matter Productivity                  5.67 kg[DM]/m3[EP]            =   56.7 kg[DM]/ha per mm[EP]
   Yield Productivity                       2.41 kg[grain yield]/m3[EP]   =   24.1 kg[yield]/ha per mm[EP]

 Irrigation during growing season          525.1 mm[irrig]
   Dry Matter Productivity                  3.27 kg[DM]/m3[irrig]         =   32.7 kg[DM]/ha per mm[irrig]
   Yield Productivity                       1.39 kg[grain yield]/m3[irrig]=   13.9 kg[yield]/ha per mm[irrig]

 N applied during growing season           323.0 kg[N applied]/ha
   Dry Matter Productivity                  53.1 kg[DM]/kg[N applied]
   Yield Productivity                       22.6 kg[yield]/kg[N applied]

 N uptake during growing season            221.5 kg[N uptake]/ha
   Dry Matter Productivity                  77.5 kg[DM]/kg[N uptake]
   Yield Productivity                       33.0 kg[yield]/kg[N uptake]

--------------------------------------------------------------------------------------------------------------

          WHEAT YIELD :     7313 kg/ha    [Dry weight] 

**************************************************************************************************************
  

*DSSAT Cropping System Model Ver. 4.8.2.000 -release  JUN 21, 2025 19:12:05

*RUN   4        : WW23_G-4                  CSCER048 CIOB2301    4
 MODEL          : CSCER048 - Wheat
 EXPERIMENT     : CIOB2301 WH ROOTS ANATOMY
 DATA PATH      : C:\DSSAT48\Wheat\
 TREATMENT  4   : WW23_G-4                  CSCER048


 CROP           : Wheat            CULTIVAR : ENTRY 4          ECOTYPE :CI0001
 STARTING DATE  : SEP  1 2022
 PLANTING DATE  : NOV 23 2022      PLANTS/m2 :   137.0    ROW SPACING :  20.cm
 WEATHER        : CIOB   2022
 SOIL           : CCENEB2301     TEXTURE : C     -   CIMMYT CENEB 710
 SOIL INIT COND : DEPTH:120cm EXTR. H2O: 82.8mm  NO3:484.0kg/ha  NH4:341.8kg/ha
 WATER BALANCE  : IRRIGATE ON REPORTED DATE(S)
 IRRIGATION     :      525 mm IN     9 APPLICATIONS
 NITROGEN BAL.  : SOIL-N & N-UPTAKE SIMULATION; NO N-FIXATION
 N-FERTILIZER   :      323 kg/ha IN     3 APPLICATIONS
 RESIDUE/MANURE : INITIAL :     0 kg/ha ;    2222 kg/ha IN     1 APPLICATIONS
 ENVIRONM. OPT. : DAYL=    0.00  SRAD=    0.00  TMAX=    0.00  TMIN=    0.00
                  RAIN=    0.00  CO2 =    0.00  DEW =    0.00  WIND=    0.00
 SIMULATION OPT : WATER   :Y  NITROGEN:Y  N-FIX:N  PHOSPH :N  PESTS  :N
                  PHOTO   :C  ET      :R  INFIL:S  HYDROL :R  SOM    :G
                  CO2 418ppm  NSWIT   :1  EVAP :R  SOIL   :2  STEMP  :D
 MANAGEMENT OPT : PLANTING:R  IRRIG   :R  FERT :R  RESIDUE:R  HARVEST:M
                  WEATHER :M  TILLAGE :Y

*SUMMARY OF SOIL AND GENETIC INPUT PARAMETERS

   SOIL LOWER UPPER   SAT  EXTR  INIT   ROOT   BULK     pH    NO3    NH4    ORG
  DEPTH LIMIT LIMIT    SW    SW    SW   DIST   DENS                          C
   cm   cm3/cm3    cm3/cm3    cm3/cm3         g/cm3         ugN/g  ugN/g     %
-------------------------------------------------------------------------------
  0-  5 0.143 0.204 0.268 0.061 0.172   1.00   1.35   8.50  29.00  29.00   1.08
  5- 15 0.143 0.204 0.268 0.061 0.172   1.00   1.35   8.50  29.00  29.00   1.08
 15- 30 0.143 0.204 0.268 0.061 0.172   1.00   1.35   8.50  29.00  29.00   1.08
 30- 45 0.166 0.234 0.274 0.068 0.225   0.41   1.58   8.50  27.00  16.00   0.80
 45- 60 0.166 0.234 0.274 0.068 0.225   0.41   1.58   8.50  27.00  16.00   0.80
 60- 90 0.155 0.227 0.276 0.072 0.207   0.22   1.50   7.90  53.00  33.00   0.87
 90-120 0.188 0.263 0.308 0.075 0.263   0.12   1.38   8.00   0.01   0.01   0.40

TOT-120  19.6  27.8  33.8   8.3  26.0  <--cm   -  kg/ha-->  484.0  341.8 137370
SOIL ALBEDO    : 0.13      EVAPORATION LIMIT : 6.00         MIN. FACTOR  : 1.00
RUNOFF CURVE # :61.00      DRAINAGE RATE     : 0.60         FERT. FACTOR : 1.00

 Wheat            CULTIVAR: 617502-ENTRY 4            ECOTYPE: CI0001
   P1V   P1D    P5    G1    G2    G3 PHINT
   2.0  22.0 605.6  19.6  51.0  8.00  79.0


*SIMULATED CROP AND SOIL STATUS AT MAIN DEVELOPMENT STAGES
  
 RUN NO.      4   ROOTS ANATOMY                                               

 ...... DATE ......  GROWTH STAGE BIOMASS   LEAF       CROP N      STRESS
 YEARDOY DOM MON DAP ............. kg/ha AREA NUMBER  kg/ha   %   H2O    N
 2022327  23 Nov   0 7 Sowing         0  0.00   0.0     0   0.0  0.00  0.00
 2022328  24 Nov   1 8 Germinate      0  0.00   0.0     0   0.0  0.00  0.00
 2022330  26 Nov   3 9 Emergence      0  0.00   0.0     0   0.0  0.00  0.00
 2023025  25 Jan  63 1 Term Spklt  1894  2.83  13.7    86   4.5  0.25  0.10
 2023043  12 Feb  81 2 End Veg     4141  5.48  17.3   137   3.3  0.03  0.00
 2023056  25 Feb  94 3 End Ear Gr  6348  4.59  17.3   134   2.1  0.00  0.00
 2023071  12 Mar 109 4 Beg Gr Fil  9731  3.72  17.3   132   1.4  0.09  0.00
 2023103  13 Apr 141 5 End Gr Fil 17328  0.39  17.3   203   1.2  0.06  0.00
 2023103  13 Apr 141 6 Harvest    17328  0.39  17.3   203   1.2  0.14  0.00
  

*MAIN GROWTH AND DEVELOPMENT VARIABLES

@     VARIABLE                             SIMULATED     MEASURED
      --------                             ---------     --------
      Emergence (DAP)                            3            7
      Anthesis (DAP)                            98           97
      Maturity (DAP)                           141          141
      Product wt (kg dm/ha;no loss)           7460         7183
      Product unit weight (g dm)             0.051        0.049
      Product number (no/m2)                 14628        14585
      Product number (no/group)               26.8        -99.0
      Product harvest index (ratio)           0.43         0.46
      Maximum leaf area index                  5.5          5.5
      Final leaf number (one axis)            17.3        -99.0
      Final shoot number (#/m2)                546          -99
      Canopy (tops) wt (kg dm/ha)            17328        15767
      Vegetative wt (kg dm/ha)                9868         8584
      Root wt (kg dm/ha)                      1002          -99
      Assimilate wt (kg dm/ha)               19434          -99
      Senesced wt (kg dm/ha)                   434          -99
      Reserves wt (kg dm/ha)                  4611          -99
      N uptake (kg/ha)                       225.1        -99.0
      N senesced (kg/ha)                       6.0        -99.0
      Above-ground N (kg/ha)                 203.0        -99.0
      Root N (kg/ha)                          16.9        -99.0
      Vegetative N (kg/ha)                    37.6        -99.0
      Product N (kg/ha)                      165.5        153.2
      Product N harvest index (ratio)         0.81       -99.00
      Product N (%)                            2.2          2.1
      Vegetative N (%)                         0.4        -99.0
      Leaf+stem wt,anthesis (kg dm/ha)        7141          -99
      Leaf+stem N,anthesis (kg/ha)           133.1        -99.0
      Leaf N,anthesis (%)                      3.0        -99.0

*ENVIRONMENTAL AND STRESS FACTORS

 |-----Development Phase------|-------------Environment--------------|----------------Stress-----------------|
                              |--------Average-------|---Cumulative--|         (0=Min, 1=Max Stress)         |
                         Time  Temp  Temp Solar Photop         Evapo |----Water---|--Nitrogen--|--Phosphorus-|
                         Span   Max   Min   Rad  [day]   Rain  Trans  Photo         Photo         Photo
                         days    °C    °C MJ/m2     hr     mm     mm  synth Growth ' synth Growth  synth Growth
--------------------------------------------------------------------------------------------------------------
 Germinate  - Term Spklt   60  26.3   7.2  14.3  11.35   10.0   93.9  0.248  0.348  0.097  0.097 -99.00 -99.00
 Term Spklt - End Veg      18  25.7   5.6  15.7  11.73    0.1   54.3  0.027  0.054  0.000  0.000 -99.00 -99.00
 End Veg    - End Ear Gr   13  22.7   8.0  14.8  12.06   12.1   37.0  0.000  0.000  0.000  0.000 -99.00 -99.00
 End Ear Gr - Beg Gr Fil   15  27.3   6.7  20.1  12.41    0.1   56.2  0.088  0.138  0.000  0.000 -99.00 -99.00
 Beg Gr Fil - End Gr Fil   32  29.2   8.9  23.2  13.05   65.8  128.7  0.064  0.105  0.000  0.000 -99.00 -99.00
  
 Germinate  - End Gr Fil  138  26.7   7.4  17.2  11.97   88.1  370.1  0.136  0.198  0.042  0.042 -99.00 -99.00
--------------------------------------------------------------------------------------------------------------


*RESOURCE PRODUCTIVITY

 Growing season length: 138 days 

 Precipitation during growth season         88.1 mm[rain]
   Dry Matter Productivity                 19.67 kg[DM]/m3[rain]          =  196.7 kg[DM]/ha per mm[rain]
   Yield Productivity                       8.47 kg[grain yield]/m3[rain] =   84.7 kg[yield]/ha per mm[rain]

 Evapotranspiration during growth season   370.1 mm[ET]
   Dry Matter Productivity                  4.68 kg[DM]/m3[ET]            =   46.8 kg[DM]/ha per mm[ET]
   Yield Productivity                       2.02 kg[grain yield]/m3[ET]   =   20.2 kg[yield]/ha per mm[ET]

 Transpiration during growth season        305.3 mm[EP]
   Dry Matter Productivity                  5.68 kg[DM]/m3[EP]            =   56.8 kg[DM]/ha per mm[EP]
   Yield Productivity                       2.44 kg[grain yield]/m3[EP]   =   24.4 kg[yield]/ha per mm[EP]

 Irrigation during growing season          525.1 mm[irrig]
   Dry Matter Productivity                  3.30 kg[DM]/m3[irrig]         =   33.0 kg[DM]/ha per mm[irrig]
   Yield Productivity                       1.42 kg[grain yield]/m3[irrig]=   14.2 kg[yield]/ha per mm[irrig]

 N applied during growing season           323.0 kg[N applied]/ha
   Dry Matter Productivity                  53.6 kg[DM]/kg[N applied]
   Yield Productivity                       23.1 kg[yield]/kg[N applied]

 N uptake during growing season            225.1 kg[N uptake]/ha
   Dry Matter Productivity                  77.0 kg[DM]/kg[N uptake]
   Yield Productivity                       33.1 kg[yield]/kg[N uptake]

--------------------------------------------------------------------------------------------------------------

          WHEAT YIELD :     7460 kg/ha    [Dry weight] 

**************************************************************************************************************
  

*DSSAT Cropping System Model Ver. 4.8.2.000 -release  JUN 21, 2025 19:12:05

*RUN   5        : WW23_G-5                  CSCER048 CIOB2301    5
 MODEL          : CSCER048 - Wheat
 EXPERIMENT     : CIOB2301 WH ROOTS ANATOMY
 DATA PATH      : C:\DSSAT48\Wheat\
 TREATMENT  5   : WW23_G-5                  CSCER048


 CROP           : Wheat            CULTIVAR : ENTRY 5          ECOTYPE :CI0001
 STARTING DATE  : SEP  1 2022
 PLANTING DATE  : NOV 23 2022      PLANTS/m2 :   137.0    ROW SPACING :  20.cm
 WEATHER        : CIOB   2022
 SOIL           : CCENEB2301     TEXTURE : C     -   CIMMYT CENEB 710
 SOIL INIT COND : DEPTH:120cm EXTR. H2O: 82.8mm  NO3:484.0kg/ha  NH4:341.8kg/ha
 WATER BALANCE  : IRRIGATE ON REPORTED DATE(S)
 IRRIGATION     :      525 mm IN     9 APPLICATIONS
 NITROGEN BAL.  : SOIL-N & N-UPTAKE SIMULATION; NO N-FIXATION
 N-FERTILIZER   :      323 kg/ha IN     3 APPLICATIONS
 RESIDUE/MANURE : INITIAL :     0 kg/ha ;    2222 kg/ha IN     1 APPLICATIONS
 ENVIRONM. OPT. : DAYL=    0.00  SRAD=    0.00  TMAX=    0.00  TMIN=    0.00
                  RAIN=    0.00  CO2 =    0.00  DEW =    0.00  WIND=    0.00
 SIMULATION OPT : WATER   :Y  NITROGEN:Y  N-FIX:N  PHOSPH :N  PESTS  :N
                  PHOTO   :C  ET      :R  INFIL:S  HYDROL :R  SOM    :G
                  CO2 418ppm  NSWIT   :1  EVAP :R  SOIL   :2  STEMP  :D
 MANAGEMENT OPT : PLANTING:R  IRRIG   :R  FERT :R  RESIDUE:R  HARVEST:M
                  WEATHER :M  TILLAGE :Y

*SUMMARY OF SOIL AND GENETIC INPUT PARAMETERS

   SOIL LOWER UPPER   SAT  EXTR  INIT   ROOT   BULK     pH    NO3    NH4    ORG
  DEPTH LIMIT LIMIT    SW    SW    SW   DIST   DENS                          C
   cm   cm3/cm3    cm3/cm3    cm3/cm3         g/cm3         ugN/g  ugN/g     %
-------------------------------------------------------------------------------
  0-  5 0.143 0.204 0.268 0.061 0.172   1.00   1.35   8.50  29.00  29.00   1.08
  5- 15 0.143 0.204 0.268 0.061 0.172   1.00   1.35   8.50  29.00  29.00   1.08
 15- 30 0.143 0.204 0.268 0.061 0.172   1.00   1.35   8.50  29.00  29.00   1.08
 30- 45 0.166 0.234 0.274 0.068 0.225   0.41   1.58   8.50  27.00  16.00   0.80
 45- 60 0.166 0.234 0.274 0.068 0.225   0.41   1.58   8.50  27.00  16.00   0.80
 60- 90 0.155 0.227 0.276 0.072 0.207   0.22   1.50   7.90  53.00  33.00   0.87
 90-120 0.188 0.263 0.308 0.075 0.263   0.12   1.38   8.00   0.01   0.01   0.40

TOT-120  19.6  27.8  33.8   8.3  26.0  <--cm   -  kg/ha-->  484.0  341.8 137370
SOIL ALBEDO    : 0.13      EVAPORATION LIMIT : 6.00         MIN. FACTOR  : 1.00
RUNOFF CURVE # :61.00      DRAINAGE RATE     : 0.60         FERT. FACTOR : 1.00

 Wheat            CULTIVAR: 617636-ENTRY 5            ECOTYPE: CI0001
   P1V   P1D    P5    G1    G2    G3 PHINT
   2.0  29.3 636.5  18.8  46.8  0.50  69.4


*SIMULATED CROP AND SOIL STATUS AT MAIN DEVELOPMENT STAGES
  
 RUN NO.      5   ROOTS ANATOMY                                               

 ...... DATE ......  GROWTH STAGE BIOMASS   LEAF       CROP N      STRESS
 YEARDOY DOM MON DAP ............. kg/ha AREA NUMBER  kg/ha   %   H2O    N
 2022327  23 Nov   0 7 Sowing         0  0.00   0.0     0   0.0  0.00  0.00
 2022328  24 Nov   1 8 Germinate      0  0.00   0.0     0   0.0  0.00  0.00
 2022330  26 Nov   3 9 Emergence      0  0.00   0.0     0   0.0  0.00  0.00
 2023027  27 Jan  65 1 Term Spklt  1960  2.72  15.9    87   4.5  0.22  0.09
 2023045  14 Feb  83 2 End Veg     4191  5.32  19.9   139   3.3  0.02  0.00
 2023058  27 Feb  96 3 End Ear Gr  6556  4.71  19.9   136   2.1  0.00  0.00
 2023073  14 Mar 111 4 Beg Gr Fil 10028  4.14  19.9   135   1.3  0.09  0.00
 2023106  16 Apr 144 5 End Gr Fil 17394  0.32  19.9   184   1.1  0.17  0.00
 2023106  16 Apr 144 6 Harvest    17394  0.32  19.9   184   1.1  0.46  0.00
  

*MAIN GROWTH AND DEVELOPMENT VARIABLES

@     VARIABLE                             SIMULATED     MEASURED
      --------                             ---------     --------
      Emergence (DAP)                            3            7
      Anthesis (DAP)                           100          100
      Maturity (DAP)                           144          144
      Product wt (kg dm/ha;no loss)           6666         7020
      Product unit weight (g dm)             0.047        0.049
      Product number (no/m2)                 14244        14222
      Product number (no/group)                5.2        -99.0
      Product harvest index (ratio)           0.38         0.34
      Maximum leaf area index                  5.3          5.3
      Final leaf number (one axis)            19.9        -99.0
      Final shoot number (#/m2)               2716          -99
      Canopy (tops) wt (kg dm/ha)            17394        20705
      Vegetative wt (kg dm/ha)               10728        13685
      Root wt (kg dm/ha)                      1031          -99
      Assimilate wt (kg dm/ha)               19646          -99
      Senesced wt (kg dm/ha)                   530          -99
      Reserves wt (kg dm/ha)                  5558          -99
      N uptake (kg/ha)                       207.3        -99.0
      N senesced (kg/ha)                       7.4        -99.0
      Above-ground N (kg/ha)                 183.8        -99.0
      Root N (kg/ha)                          16.9        -99.0
      Vegetative N (kg/ha)                    36.5        -99.0
      Product N (kg/ha)                      147.3        148.5
      Product N harvest index (ratio)         0.80       -99.00
      Product N (%)                            2.2          2.1
      Vegetative N (%)                         0.3        -99.0
      Leaf+stem wt,anthesis (kg dm/ha)        7380          -99
      Leaf+stem N,anthesis (kg/ha)           135.3        -99.0
      Leaf N,anthesis (%)                      3.0        -99.0

*ENVIRONMENTAL AND STRESS FACTORS

 |-----Development Phase------|-------------Environment--------------|----------------Stress-----------------|
                              |--------Average-------|---Cumulative--|         (0=Min, 1=Max Stress)         |
                         Time  Temp  Temp Solar Photop         Evapo |----Water---|--Nitrogen--|--Phosphorus-|
                         Span   Max   Min   Rad  [day]   Rain  Trans  Photo         Photo         Photo
                         days    °C    °C MJ/m2     hr     mm     mm  synth Growth ' synth Growth  synth Growth
--------------------------------------------------------------------------------------------------------------
 Germinate  - Term Spklt   62  26.2   7.1  14.3  11.35   10.0   98.7  0.223  0.321  0.094  0.094 -99.00 -99.00
 Term Spklt - End Veg      18  25.5   5.7  15.6  11.76    0.1   54.0  0.022  0.048  0.000  0.000 -99.00 -99.00
 End Veg    - End Ear Gr   13  23.3   8.2  15.8  12.11   12.1   40.0  0.000  0.001  0.000  0.000 -99.00 -99.00
 End Ear Gr - Beg Gr Fil   15  28.1   7.0  20.4  12.46    0.1   58.0  0.085  0.135  0.000  0.000 -99.00 -99.00
 Beg Gr Fil - End Gr Fil   33  29.1   9.0  23.4  13.12   65.8  122.9  0.170  0.215  0.000  0.000 -99.00 -99.00
  
 Germinate  - End Gr Fil  141  26.7   7.5  17.4  12.01   88.1  373.7  0.150  0.212  0.042  0.042 -99.00 -99.00
--------------------------------------------------------------------------------------------------------------


*RESOURCE PRODUCTIVITY

 Growing season length: 141 days 

 Precipitation during growth season         88.1 mm[rain]
   Dry Matter Productivity                 19.74 kg[DM]/m3[rain]          =  197.4 kg[DM]/ha per mm[rain]
   Yield Productivity                       7.57 kg[grain yield]/m3[rain] =   75.7 kg[yield]/ha per mm[rain]

 Evapotranspiration during growth season   373.7 mm[ET]
   Dry Matter Productivity                  4.65 kg[DM]/m3[ET]            =   46.5 kg[DM]/ha per mm[ET]
   Yield Productivity                       1.78 kg[grain yield]/m3[ET]   =   17.8 kg[yield]/ha per mm[ET]

 Transpiration during growth season        310.5 mm[EP]
   Dry Matter Productivity                  5.60 kg[DM]/m3[EP]            =   56.0 kg[DM]/ha per mm[EP]
   Yield Productivity                       2.15 kg[grain yield]/m3[EP]   =   21.5 kg[yield]/ha per mm[EP]

 Irrigation during growing season          525.1 mm[irrig]
   Dry Matter Productivity                  3.31 kg[DM]/m3[irrig]         =   33.1 kg[DM]/ha per mm[irrig]
   Yield Productivity                       1.27 kg[grain yield]/m3[irrig]=   12.7 kg[yield]/ha per mm[irrig]

 N applied during growing season           323.0 kg[N applied]/ha
   Dry Matter Productivity                  53.9 kg[DM]/kg[N applied]
   Yield Productivity                       20.6 kg[yield]/kg[N applied]

 N uptake during growing season            207.3 kg[N uptake]/ha
   Dry Matter Productivity                  83.9 kg[DM]/kg[N uptake]
   Yield Productivity                       32.2 kg[yield]/kg[N uptake]

--------------------------------------------------------------------------------------------------------------

          WHEAT YIELD :     6666 kg/ha    [Dry weight] 

**************************************************************************************************************
  

*DSSAT Cropping System Model Ver. 4.8.2.000 -release  JUN 21, 2025 19:12:05

*RUN   6        : WW23_G-6                  CSCER048 CIOB2301    6
 MODEL          : CSCER048 - Wheat
 EXPERIMENT     : CIOB2301 WH ROOTS ANATOMY
 DATA PATH      : C:\DSSAT48\Wheat\
 TREATMENT  6   : WW23_G-6                  CSCER048


 CROP           : Wheat            CULTIVAR : ENTRY 6          ECOTYPE :CI0001
 STARTING DATE  : SEP  1 2022
 PLANTING DATE  : NOV 23 2022      PLANTS/m2 :   137.0    ROW SPACING :  20.cm
 WEATHER        : CIOB   2022
 SOIL           : CCENEB2301     TEXTURE : C     -   CIMMYT CENEB 710
 SOIL INIT COND : DEPTH:120cm EXTR. H2O: 82.8mm  NO3:484.0kg/ha  NH4:341.8kg/ha
 WATER BALANCE  : IRRIGATE ON REPORTED DATE(S)
 IRRIGATION     :      525 mm IN     9 APPLICATIONS
 NITROGEN BAL.  : SOIL-N & N-UPTAKE SIMULATION; NO N-FIXATION
 N-FERTILIZER   :      323 kg/ha IN     3 APPLICATIONS
 RESIDUE/MANURE : INITIAL :     0 kg/ha ;    2222 kg/ha IN     1 APPLICATIONS
 ENVIRONM. OPT. : DAYL=    0.00  SRAD=    0.00  TMAX=    0.00  TMIN=    0.00
                  RAIN=    0.00  CO2 =    0.00  DEW =    0.00  WIND=    0.00
 SIMULATION OPT : WATER   :Y  NITROGEN:Y  N-FIX:N  PHOSPH :N  PESTS  :N
                  PHOTO   :C  ET      :R  INFIL:S  HYDROL :R  SOM    :G
                  CO2 418ppm  NSWIT   :1  EVAP :R  SOIL   :2  STEMP  :D
 MANAGEMENT OPT : PLANTING:R  IRRIG   :R  FERT :R  RESIDUE:R  HARVEST:M
                  WEATHER :M  TILLAGE :Y

*SUMMARY OF SOIL AND GENETIC INPUT PARAMETERS

   SOIL LOWER UPPER   SAT  EXTR  INIT   ROOT   BULK     pH    NO3    NH4    ORG
  DEPTH LIMIT LIMIT    SW    SW    SW   DIST   DENS                          C
   cm   cm3/cm3    cm3/cm3    cm3/cm3         g/cm3         ugN/g  ugN/g     %
-------------------------------------------------------------------------------
  0-  5 0.143 0.204 0.268 0.061 0.172   1.00   1.35   8.50  29.00  29.00   1.08
  5- 15 0.143 0.204 0.268 0.061 0.172   1.00   1.35   8.50  29.00  29.00   1.08
 15- 30 0.143 0.204 0.268 0.061 0.172   1.00   1.35   8.50  29.00  29.00   1.08
 30- 45 0.166 0.234 0.274 0.068 0.225   0.41   1.58   8.50  27.00  16.00   0.80
 45- 60 0.166 0.234 0.274 0.068 0.225   0.41   1.58   8.50  27.00  16.00   0.80
 60- 90 0.155 0.227 0.276 0.072 0.207   0.22   1.50   7.90  53.00  33.00   0.87
 90-120 0.188 0.263 0.308 0.075 0.263   0.12   1.38   8.00   0.01   0.01   0.40

TOT-120  19.6  27.8  33.8   8.3  26.0  <--cm   -  kg/ha-->  484.0  341.8 137370
SOIL ALBEDO    : 0.13      EVAPORATION LIMIT : 6.00         MIN. FACTOR  : 1.00
RUNOFF CURVE # :61.00      DRAINAGE RATE     : 0.60         FERT. FACTOR : 1.00

 Wheat            CULTIVAR: 474812-ENTRY 6            ECOTYPE: CI0001
   P1V   P1D    P5    G1    G2    G3 PHINT
   2.0  29.0 618.1  21.3  41.9  3.60  78.3


*SIMULATED CROP AND SOIL STATUS AT MAIN DEVELOPMENT STAGES
  
 RUN NO.      6   ROOTS ANATOMY                                               

 ...... DATE ......  GROWTH STAGE BIOMASS   LEAF       CROP N      STRESS
 YEARDOY DOM MON DAP ............. kg/ha AREA NUMBER  kg/ha   %   H2O    N
 2022327  23 Nov   0 7 Sowing         0  0.00   0.0     0   0.0  0.00  0.00
 2022328  24 Nov   1 8 Germinate      0  0.00   0.0     0   0.0  0.00  0.00
 2022330  26 Nov   3 9 Emergence      0  0.00   0.0     0   0.0  0.00  0.00
 2023027  27 Jan  65 1 Term Spklt  2085  3.11  14.2    95   4.6  0.24  0.09
 2023045  14 Feb  83 2 End Veg     4330  5.74  17.8   144   3.3  0.03  0.00
 2023058  27 Feb  96 3 End Ear Gr  6702  4.81  17.8   141   2.1  0.00  0.00
 2023073  14 Mar 111 4 Beg Gr Fil 10177  3.91  17.8   140   1.4  0.08  0.00
 2023105  15 Apr 143 5 End Gr Fil 17453  0.31  17.8   190   1.1  0.13  0.00
 2023105  15 Apr 143 6 Harvest    17453  0.31  17.8   190   1.1  0.36  0.00
  

*MAIN GROWTH AND DEVELOPMENT VARIABLES

@     VARIABLE                             SIMULATED     MEASURED
      --------                             ---------     --------
      Emergence (DAP)                            3            7
      Anthesis (DAP)                           100          100
      Maturity (DAP)                           143          143
      Product wt (kg dm/ha;no loss)           6887         6947
      Product unit weight (g dm)             0.042        0.042
      Product number (no/m2)                 16437        16489
      Product number (no/group)               21.4        -99.0
      Product harvest index (ratio)           0.39         0.39
      Maximum leaf area index                  5.7          5.7
      Final leaf number (one axis)            17.8        -99.0
      Final shoot number (#/m2)                767          -99
      Canopy (tops) wt (kg dm/ha)            17453        17928
      Vegetative wt (kg dm/ha)               10566        10981
      Root wt (kg dm/ha)                      1047          -99
      Assimilate wt (kg dm/ha)               19683          -99
      Senesced wt (kg dm/ha)                   482          -99
      Reserves wt (kg dm/ha)                  5286          -99
      N uptake (kg/ha)                       213.2        -99.0
      N senesced (kg/ha)                       6.7        -99.0
      Above-ground N (kg/ha)                 189.7        -99.0
      Root N (kg/ha)                          17.6        -99.0
      Vegetative N (kg/ha)                    37.9        -99.0
      Product N (kg/ha)                      151.8        133.9
      Product N harvest index (ratio)         0.80       -99.00
      Product N (%)                            2.2          1.9
      Vegetative N (%)                         0.4        -99.0
      Leaf+stem wt,anthesis (kg dm/ha)        7527          -99
      Leaf+stem N,anthesis (kg/ha)           140.4        -99.0
      Leaf N,anthesis (%)                      3.0        -99.0

*ENVIRONMENTAL AND STRESS FACTORS

 |-----Development Phase------|-------------Environment--------------|----------------Stress-----------------|
                              |--------Average-------|---Cumulative--|         (0=Min, 1=Max Stress)         |
                         Time  Temp  Temp Solar Photop         Evapo |----Water---|--Nitrogen--|--Phosphorus-|
                         Span   Max   Min   Rad  [day]   Rain  Trans  Photo         Photo         Photo
                         days    °C    °C MJ/m2     hr     mm     mm  synth Growth ' synth Growth  synth Growth
--------------------------------------------------------------------------------------------------------------
 Germinate  - Term Spklt   62  26.2   7.1  14.3  11.35   10.0   99.5  0.237  0.334  0.094  0.094 -99.00 -99.00
 Term Spklt - End Veg      18  25.5   5.7  15.6  11.76    0.1   54.0  0.025  0.051  0.000  0.000 -99.00 -99.00
 End Veg    - End Ear Gr   13  23.3   8.2  15.8  12.11   12.1   40.1  0.000  0.000  0.000  0.000 -99.00 -99.00
 End Ear Gr - Beg Gr Fil   15  28.1   7.0  20.4  12.46    0.1   58.2  0.083  0.133  0.000  0.000 -99.00 -99.00
 Beg Gr Fil - End Gr Fil   32  29.0   8.9  23.3  13.11   65.8  122.0  0.130  0.175  0.000  0.000 -99.00 -99.00
  
 Germinate  - End Gr Fil  140  26.7   7.5  17.3  12.00   88.1  373.7  0.147  0.209  0.042  0.042 -99.00 -99.00
--------------------------------------------------------------------------------------------------------------


*RESOURCE PRODUCTIVITY

 Growing season length: 140 days 

 Precipitation during growth season         88.1 mm[rain]
   Dry Matter Productivity                 19.81 kg[DM]/m3[rain]          =  198.1 kg[DM]/ha per mm[rain]
   Yield Productivity                       7.82 kg[grain yield]/m3[rain] =   78.2 kg[yield]/ha per mm[rain]

 Evapotranspiration during growth season   373.7 mm[ET]
   Dry Matter Productivity                  4.67 kg[DM]/m3[ET]            =   46.7 kg[DM]/ha per mm[ET]
   Yield Productivity                       1.84 kg[grain yield]/m3[ET]   =   18.4 kg[yield]/ha per mm[ET]

 Transpiration during growth season        311.2 mm[EP]
   Dry Matter Productivity                  5.61 kg[DM]/m3[EP]            =   56.1 kg[DM]/ha per mm[EP]
   Yield Productivity                       2.21 kg[grain yield]/m3[EP]   =   22.1 kg[yield]/ha per mm[EP]

 Irrigation during growing season          525.1 mm[irrig]
   Dry Matter Productivity                  3.32 kg[DM]/m3[irrig]         =   33.2 kg[DM]/ha per mm[irrig]
   Yield Productivity                       1.31 kg[grain yield]/m3[irrig]=   13.1 kg[yield]/ha per mm[irrig]

 N applied during growing season           323.0 kg[N applied]/ha
   Dry Matter Productivity                  54.0 kg[DM]/kg[N applied]
   Yield Productivity                       21.3 kg[yield]/kg[N applied]

 N uptake during growing season            213.2 kg[N uptake]/ha
   Dry Matter Productivity                  81.8 kg[DM]/kg[N uptake]
   Yield Productivity                       32.3 kg[yield]/kg[N uptake]

--------------------------------------------------------------------------------------------------------------

          WHEAT YIELD :     6887 kg/ha    [Dry weight] 

**************************************************************************************************************
  

*DSSAT Cropping System Model Ver. 4.8.2.000 -release  JUN 21, 2025 19:12:05

*RUN   7        : WW23_G-7                  CSCER048 CIOB2301    7
 MODEL          : CSCER048 - Wheat
 EXPERIMENT     : CIOB2301 WH ROOTS ANATOMY
 DATA PATH      : C:\DSSAT48\Wheat\
 TREATMENT  7   : WW23_G-7                  CSCER048


 CROP           : Wheat            CULTIVAR : ENTRY 7          ECOTYPE :CI0001
 STARTING DATE  : SEP  1 2022
 PLANTING DATE  : NOV 23 2022      PLANTS/m2 :   137.0    ROW SPACING :  20.cm
 WEATHER        : CIOB   2022
 SOIL           : CCENEB2301     TEXTURE : C     -   CIMMYT CENEB 710
 SOIL INIT COND : DEPTH:120cm EXTR. H2O: 82.8mm  NO3:484.0kg/ha  NH4:341.8kg/ha
 WATER BALANCE  : IRRIGATE ON REPORTED DATE(S)
 IRRIGATION     :      525 mm IN     9 APPLICATIONS
 NITROGEN BAL.  : SOIL-N & N-UPTAKE SIMULATION; NO N-FIXATION
 N-FERTILIZER   :      323 kg/ha IN     3 APPLICATIONS
 RESIDUE/MANURE : INITIAL :     0 kg/ha ;    2222 kg/ha IN     1 APPLICATIONS
 ENVIRONM. OPT. : DAYL=    0.00  SRAD=    0.00  TMAX=    0.00  TMIN=    0.00
                  RAIN=    0.00  CO2 =    0.00  DEW =    0.00  WIND=    0.00
 SIMULATION OPT : WATER   :Y  NITROGEN:Y  N-FIX:N  PHOSPH :N  PESTS  :N
                  PHOTO   :C  ET      :R  INFIL:S  HYDROL :R  SOM    :G
                  CO2 418ppm  NSWIT   :1  EVAP :R  SOIL   :2  STEMP  :D
 MANAGEMENT OPT : PLANTING:R  IRRIG   :R  FERT :R  RESIDUE:R  HARVEST:M
                  WEATHER :M  TILLAGE :Y

*SUMMARY OF SOIL AND GENETIC INPUT PARAMETERS

   SOIL LOWER UPPER   SAT  EXTR  INIT   ROOT   BULK     pH    NO3    NH4    ORG
  DEPTH LIMIT LIMIT    SW    SW    SW   DIST   DENS                          C
   cm   cm3/cm3    cm3/cm3    cm3/cm3         g/cm3         ugN/g  ugN/g     %
-------------------------------------------------------------------------------
  0-  5 0.143 0.204 0.268 0.061 0.172   1.00   1.35   8.50  29.00  29.00   1.08
  5- 15 0.143 0.204 0.268 0.061 0.172   1.00   1.35   8.50  29.00  29.00   1.08
 15- 30 0.143 0.204 0.268 0.061 0.172   1.00   1.35   8.50  29.00  29.00   1.08
 30- 45 0.166 0.234 0.274 0.068 0.225   0.41   1.58   8.50  27.00  16.00   0.80
 45- 60 0.166 0.234 0.274 0.068 0.225   0.41   1.58   8.50  27.00  16.00   0.80
 60- 90 0.155 0.227 0.276 0.072 0.207   0.22   1.50   7.90  53.00  33.00   0.87
 90-120 0.188 0.263 0.308 0.075 0.263   0.12   1.38   8.00   0.01   0.01   0.40

TOT-120  19.6  27.8  33.8   8.3  26.0  <--cm   -  kg/ha-->  484.0  341.8 137370
SOIL ALBEDO    : 0.13      EVAPORATION LIMIT : 6.00         MIN. FACTOR  : 1.00
RUNOFF CURVE # :61.00      DRAINAGE RATE     : 0.60         FERT. FACTOR : 1.00

 Wheat            CULTIVAR: 748117-ENTRY 7            ECOTYPE: CI0001
   P1V   P1D    P5    G1    G2    G3 PHINT
   2.0  32.0 580.1  20.1  42.5  7.51  98.6


*SIMULATED CROP AND SOIL STATUS AT MAIN DEVELOPMENT STAGES
  
 RUN NO.      7   ROOTS ANATOMY                                               

 ...... DATE ......  GROWTH STAGE BIOMASS   LEAF       CROP N      STRESS
 YEARDOY DOM MON DAP ............. kg/ha AREA NUMBER  kg/ha   %   H2O    N
 2022327  23 Nov   0 7 Sowing         0  0.00   0.0     0   0.0  0.00  0.00
 2022328  24 Nov   1 8 Germinate      0  0.00   0.0     0   0.0  0.00  0.00
 2022330  26 Nov   3 9 Emergence      0  0.00   0.0     0   0.0  0.00  0.00
 2023028  28 Jan  66 1 Term Spklt  2392  3.92  11.6   112   4.7  0.26  0.09
 2023046  15 Feb  84 2 End Veg     4676  6.73  14.5   157   3.4  0.03  0.00
 2023059  28 Feb  97 3 End Ear Gr  7078  5.61  14.5   154   2.2  0.00  0.00
 2023074  15 Mar 112 4 Beg Gr Fil 10636  4.53  14.5   153   1.4  0.08  0.00
 2023104  14 Apr 142 5 End Gr Fil 17652  0.38  14.5   192   1.1  0.13  0.00
 2023104  14 Apr 142 6 Harvest    17652  0.38  14.5   192   1.1  0.40  0.00
  

*MAIN GROWTH AND DEVELOPMENT VARIABLES

@     VARIABLE                             SIMULATED     MEASURED
      --------                             ---------     --------
      Emergence (DAP)                            3            7
      Anthesis (DAP)                           101          101
      Maturity (DAP)                           142          142
      Product wt (kg dm/ha;no loss)           6815         6650
      Product unit weight (g dm)             0.042        0.041
      Product number (no/m2)                 16035        16031
      Product number (no/group)               31.0        -99.0
      Product harvest index (ratio)           0.39         0.41
      Maximum leaf area index                  6.7          6.7
      Final leaf number (one axis)            14.5        -99.0
      Final shoot number (#/m2)                517          -99
      Canopy (tops) wt (kg dm/ha)            17652        16066
      Vegetative wt (kg dm/ha)               10837         9416
      Root wt (kg dm/ha)                      1093          -99
      Assimilate wt (kg dm/ha)               19902          -99
      Senesced wt (kg dm/ha)                   423          -99
      Reserves wt (kg dm/ha)                  5301          -99
      N uptake (kg/ha)                       215.1        -99.0
      N senesced (kg/ha)                       5.9        -99.0
      Above-ground N (kg/ha)                 191.6        -99.0
      Root N (kg/ha)                          18.4        -99.0
      Vegetative N (kg/ha)                    40.6        -99.0
      Product N (kg/ha)                      151.0        123.9
      Product N harvest index (ratio)         0.79       -99.00
      Product N (%)                            2.2          1.9
      Vegetative N (%)                         0.4        -99.0
      Leaf+stem wt,anthesis (kg dm/ha)        7930          -99
      Leaf+stem N,anthesis (kg/ha)           153.5        -99.0
      Leaf N,anthesis (%)                      3.0        -99.0

*ENVIRONMENTAL AND STRESS FACTORS

 |-----Development Phase------|-------------Environment--------------|----------------Stress-----------------|
                              |--------Average-------|---Cumulative--|         (0=Min, 1=Max Stress)         |
                         Time  Temp  Temp Solar Photop         Evapo |----Water---|--Nitrogen--|--Phosphorus-|
                         Span   Max   Min   Rad  [day]   Rain  Trans  Photo         Photo         Photo
                         days    °C    °C MJ/m2     hr     mm     mm  synth Growth ' synth Growth  synth Growth
--------------------------------------------------------------------------------------------------------------
 Germinate  - Term Spklt   63  26.2   7.1  14.3  11.36   10.0  103.8  0.255  0.348  0.090  0.090 -99.00 -99.00
 Term Spklt - End Veg      18  25.3   5.7  15.8  11.78    3.6   54.3  0.026  0.052  0.000  0.000 -99.00 -99.00
 End Veg    - End Ear Gr   13  23.7   8.2  15.9  12.13    8.6   40.5  0.000  0.000  0.000  0.000 -99.00 -99.00
 End Ear Gr - Beg Gr Fil   15  28.3   7.3  20.5  12.49    0.1   59.0  0.080  0.129  0.000  0.000 -99.00 -99.00
 Beg Gr Fil - End Gr Fil   30  29.0   8.9  23.3  13.11   65.8  116.9  0.134  0.178  0.000  0.000 -99.00 -99.00
  
 Germinate  - End Gr Fil  139  26.7   7.4  17.3  11.99   88.1  374.6  0.157  0.217  0.041  0.041 -99.00 -99.00
--------------------------------------------------------------------------------------------------------------


*RESOURCE PRODUCTIVITY

 Growing season length: 139 days 

 Precipitation during growth season         88.1 mm[rain]
   Dry Matter Productivity                 20.04 kg[DM]/m3[rain]          =  200.4 kg[DM]/ha per mm[rain]
   Yield Productivity                       7.74 kg[grain yield]/m3[rain] =   77.4 kg[yield]/ha per mm[rain]

 Evapotranspiration during growth season   374.6 mm[ET]
   Dry Matter Productivity                  4.71 kg[DM]/m3[ET]            =   47.1 kg[DM]/ha per mm[ET]
   Yield Productivity                       1.82 kg[grain yield]/m3[ET]   =   18.2 kg[yield]/ha per mm[ET]

 Transpiration during growth season        318.3 mm[EP]
   Dry Matter Productivity                  5.55 kg[DM]/m3[EP]            =   55.5 kg[DM]/ha per mm[EP]
   Yield Productivity                       2.14 kg[grain yield]/m3[EP]   =   21.4 kg[yield]/ha per mm[EP]

 Irrigation during growing season          525.1 mm[irrig]
   Dry Matter Productivity                  3.36 kg[DM]/m3[irrig]         =   33.6 kg[DM]/ha per mm[irrig]
   Yield Productivity                       1.30 kg[grain yield]/m3[irrig]=   13.0 kg[yield]/ha per mm[irrig]

 N applied during growing season           323.0 kg[N applied]/ha
   Dry Matter Productivity                  54.7 kg[DM]/kg[N applied]
   Yield Productivity                       21.1 kg[yield]/kg[N applied]

 N uptake during growing season            215.1 kg[N uptake]/ha
   Dry Matter Productivity                  82.1 kg[DM]/kg[N uptake]
   Yield Productivity                       31.7 kg[yield]/kg[N uptake]

--------------------------------------------------------------------------------------------------------------

          WHEAT YIELD :     6815 kg/ha    [Dry weight] 

**************************************************************************************************************
  

*DSSAT Cropping System Model Ver. 4.8.2.000 -release  JUN 21, 2025 19:12:05

*RUN   8        : WW23_G-8                  CSCER048 CIOB2301    8
 MODEL          : CSCER048 - Wheat
 EXPERIMENT     : CIOB2301 WH ROOTS ANATOMY
 DATA PATH      : C:\DSSAT48\Wheat\
 TREATMENT  8   : WW23_G-8                  CSCER048


 CROP           : Wheat            CULTIVAR : ENTRY 8          ECOTYPE :CI0001
 STARTING DATE  : SEP  1 2022
 PLANTING DATE  : NOV 23 2022      PLANTS/m2 :   137.0    ROW SPACING :  20.cm
 WEATHER        : CIOB   2022
 SOIL           : CCENEB2301     TEXTURE : C     -   CIMMYT CENEB 710
 SOIL INIT COND : DEPTH:120cm EXTR. H2O: 82.8mm  NO3:484.0kg/ha  NH4:341.8kg/ha
 WATER BALANCE  : IRRIGATE ON REPORTED DATE(S)
 IRRIGATION     :      525 mm IN     9 APPLICATIONS
 NITROGEN BAL.  : SOIL-N & N-UPTAKE SIMULATION; NO N-FIXATION
 N-FERTILIZER   :      323 kg/ha IN     3 APPLICATIONS
 RESIDUE/MANURE : INITIAL :     0 kg/ha ;    2222 kg/ha IN     1 APPLICATIONS
 ENVIRONM. OPT. : DAYL=    0.00  SRAD=    0.00  TMAX=    0.00  TMIN=    0.00
                  RAIN=    0.00  CO2 =    0.00  DEW =    0.00  WIND=    0.00
 SIMULATION OPT : WATER   :Y  NITROGEN:Y  N-FIX:N  PHOSPH :N  PESTS  :N
                  PHOTO   :C  ET      :R  INFIL:S  HYDROL :R  SOM    :G
                  CO2 418ppm  NSWIT   :1  EVAP :R  SOIL   :2  STEMP  :D
 MANAGEMENT OPT : PLANTING:R  IRRIG   :R  FERT :R  RESIDUE:R  HARVEST:M
                  WEATHER :M  TILLAGE :Y

*SUMMARY OF SOIL AND GENETIC INPUT PARAMETERS

   SOIL LOWER UPPER   SAT  EXTR  INIT   ROOT   BULK     pH    NO3    NH4    ORG
  DEPTH LIMIT LIMIT    SW    SW    SW   DIST   DENS                          C
   cm   cm3/cm3    cm3/cm3    cm3/cm3         g/cm3         ugN/g  ugN/g     %
-------------------------------------------------------------------------------
  0-  5 0.143 0.204 0.268 0.061 0.172   1.00   1.35   8.50  29.00  29.00   1.08
  5- 15 0.143 0.204 0.268 0.061 0.172   1.00   1.35   8.50  29.00  29.00   1.08
 15- 30 0.143 0.204 0.268 0.061 0.172   1.00   1.35   8.50  29.00  29.00   1.08
 30- 45 0.166 0.234 0.274 0.068 0.225   0.41   1.58   8.50  27.00  16.00   0.80
 45- 60 0.166 0.234 0.274 0.068 0.225   0.41   1.58   8.50  27.00  16.00   0.80
 60- 90 0.155 0.227 0.276 0.072 0.207   0.22   1.50   7.90  53.00  33.00   0.87
 90-120 0.188 0.263 0.308 0.075 0.263   0.12   1.38   8.00   0.01   0.01   0.40

TOT-120  19.6  27.8  33.8   8.3  26.0  <--cm   -  kg/ha-->  484.0  341.8 137370
SOIL ALBEDO    : 0.13      EVAPORATION LIMIT : 6.00         MIN. FACTOR  : 1.00
RUNOFF CURVE # :61.00      DRAINAGE RATE     : 0.60         FERT. FACTOR : 1.00

 Wheat            CULTIVAR: 748118-ENTRY 8            ECOTYPE: CI0001
   P1V   P1D    P5    G1    G2    G3 PHINT
   2.0  38.8 629.1  20.0  39.5  1.53  71.6


*SIMULATED CROP AND SOIL STATUS AT MAIN DEVELOPMENT STAGES
  
 RUN NO.      8   ROOTS ANATOMY                                               

 ...... DATE ......  GROWTH STAGE BIOMASS   LEAF       CROP N      STRESS
 YEARDOY DOM MON DAP ............. kg/ha AREA NUMBER  kg/ha   %   H2O    N
 2022327  23 Nov   0 7 Sowing         0  0.00   0.0     0   0.0  0.00  0.00
 2022328  24 Nov   1 8 Germinate      0  0.00   0.0     0   0.0  0.00  0.00
 2022330  26 Nov   3 9 Emergence      0  0.00   0.0     0   0.0  0.00  0.00
 2023031  31 Jan  69 1 Term Spklt  2353  3.22  16.3   104   4.4  0.21  0.09
 2023049  18 Feb  87 2 End Veg     4599  5.75  20.2   152   3.3  0.02  0.00
 2023062   3 Mar 100 3 End Ear Gr  7053  4.88  20.2   149   2.1  0.00  0.00
 2023076  17 Mar 114 4 Beg Gr Fil 10302  4.07  20.2   148   1.4  0.08  0.00
 2023108  18 Apr 146 5 End Gr Fil 17269  0.28  20.2   174   1.0  0.22  0.00
 2023108  18 Apr 146 6 Harvest    17269  0.28  20.2   174   1.0  0.35  0.00
  

*MAIN GROWTH AND DEVELOPMENT VARIABLES

@     VARIABLE                             SIMULATED     MEASURED
      --------                             ---------     --------
      Emergence (DAP)                            3            7
      Anthesis (DAP)                           104          104
      Maturity (DAP)                           146          146
      Product wt (kg dm/ha;no loss)           6104         6393
      Product unit weight (g dm)             0.040        0.041
      Product number (no/m2)                 15453        15446
      Product number (no/group)               12.1        -99.0
      Product harvest index (ratio)           0.35         0.31
      Maximum leaf area index                  5.7          5.7
      Final leaf number (one axis)            20.2        -99.0
      Final shoot number (#/m2)               1279          -99
      Canopy (tops) wt (kg dm/ha)            17269        20909
      Vegetative wt (kg dm/ha)               11165        14516
      Root wt (kg dm/ha)                      1095          -99
      Assimilate wt (kg dm/ha)               19775          -99
      Senesced wt (kg dm/ha)                   673          -99
      Reserves wt (kg dm/ha)                  5710          -99
      N uptake (kg/ha)                       200.5        -99.0
      N senesced (kg/ha)                       9.4        -99.0
      Above-ground N (kg/ha)                 173.7        -99.0
      Root N (kg/ha)                          18.2        -99.0
      Vegetative N (kg/ha)                    39.2        -99.0
      Product N (kg/ha)                      134.5        141.9
      Product N harvest index (ratio)         0.77       -99.00
      Product N (%)                            2.2          2.2
      Vegetative N (%)                         0.4        -99.0
      Leaf+stem wt,anthesis (kg dm/ha)        7753          -99
      Leaf+stem N,anthesis (kg/ha)           148.3        -99.0
      Leaf N,anthesis (%)                      3.0        -99.0

*ENVIRONMENTAL AND STRESS FACTORS

 |-----Development Phase------|-------------Environment--------------|----------------Stress-----------------|
                              |--------Average-------|---Cumulative--|         (0=Min, 1=Max Stress)         |
                         Time  Temp  Temp Solar Photop         Evapo |----Water---|--Nitrogen--|--Phosphorus-|
                         Span   Max   Min   Rad  [day]   Rain  Trans  Photo         Photo         Photo
                         days    °C    °C MJ/m2     hr     mm     mm  synth Growth ' synth Growth  synth Growth
--------------------------------------------------------------------------------------------------------------
 Germinate  - Term Spklt   66  26.1   7.0  14.4  11.37   10.0  111.3  0.210  0.303  0.091  0.091 -99.00 -99.00
 Term Spklt - End Veg      18  25.1   6.1  15.5  11.85   11.8   53.6  0.019  0.040  0.000  0.000 -99.00 -99.00
 End Veg    - End Ear Gr   13  23.5   8.1  16.3  12.20    0.5   41.4  0.000  0.006  0.000  0.000 -99.00 -99.00
 End Ear Gr - Beg Gr Fil   14  29.5   8.4  20.3  12.55   13.7   55.3  0.083  0.130  0.000  0.000 -99.00 -99.00
 Beg Gr Fil - End Gr Fil   32  29.3   8.8  24.2  13.19   52.1  115.9  0.219  0.268  0.000  0.000 -99.00 -99.00
  
 Germinate  - End Gr Fil  143  26.8   7.5  17.5  12.03   88.1  377.4  0.156  0.218  0.042  0.042 -99.00 -99.00
--------------------------------------------------------------------------------------------------------------


*RESOURCE PRODUCTIVITY

 Growing season length: 143 days 

 Precipitation during growth season         88.1 mm[rain]
   Dry Matter Productivity                 19.60 kg[DM]/m3[rain]          =  196.0 kg[DM]/ha per mm[rain]
   Yield Productivity                       6.93 kg[grain yield]/m3[rain] =   69.3 kg[yield]/ha per mm[rain]

 Evapotranspiration during growth season   377.4 mm[ET]
   Dry Matter Productivity                  4.58 kg[DM]/m3[ET]            =   45.8 kg[DM]/ha per mm[ET]
   Yield Productivity                       1.62 kg[grain yield]/m3[ET]   =   16.2 kg[yield]/ha per mm[ET]

 Transpiration during growth season        315.2 mm[EP]
   Dry Matter Productivity                  5.48 kg[DM]/m3[EP]            =   54.8 kg[DM]/ha per mm[EP]
   Yield Productivity                       1.94 kg[grain yield]/m3[EP]   =   19.4 kg[yield]/ha per mm[EP]

 Irrigation during growing season          525.1 mm[irrig]
   Dry Matter Productivity                  3.29 kg[DM]/m3[irrig]         =   32.9 kg[DM]/ha per mm[irrig]
   Yield Productivity                       1.16 kg[grain yield]/m3[irrig]=   11.6 kg[yield]/ha per mm[irrig]

 N applied during growing season           323.0 kg[N applied]/ha
   Dry Matter Productivity                  53.5 kg[DM]/kg[N applied]
   Yield Productivity                       18.9 kg[yield]/kg[N applied]

 N uptake during growing season            200.5 kg[N uptake]/ha
   Dry Matter Productivity                  86.1 kg[DM]/kg[N uptake]
   Yield Productivity                       30.4 kg[yield]/kg[N uptake]

--------------------------------------------------------------------------------------------------------------

          WHEAT YIELD :     6104 kg/ha    [Dry weight] 

**************************************************************************************************************
  

*DSSAT Cropping System Model Ver. 4.8.2.000 -release  JUN 21, 2025 19:12:05

*RUN   9        : WW23_G-9                  CSCER048 CIOB2301    9
 MODEL          : CSCER048 - Wheat
 EXPERIMENT     : CIOB2301 WH ROOTS ANATOMY
 DATA PATH      : C:\DSSAT48\Wheat\
 TREATMENT  9   : WW23_G-9                  CSCER048


 CROP           : Wheat            CULTIVAR : ENTRY 9          ECOTYPE :CI0001
 STARTING DATE  : SEP  1 2022
 PLANTING DATE  : NOV 23 2022      PLANTS/m2 :   137.0    ROW SPACING :  20.cm
 WEATHER        : CIOB   2022
 SOIL           : CCENEB2301     TEXTURE : C     -   CIMMYT CENEB 710
 SOIL INIT COND : DEPTH:120cm EXTR. H2O: 82.8mm  NO3:484.0kg/ha  NH4:341.8kg/ha
 WATER BALANCE  : IRRIGATE ON REPORTED DATE(S)
 IRRIGATION     :      525 mm IN     9 APPLICATIONS
 NITROGEN BAL.  : SOIL-N & N-UPTAKE SIMULATION; NO N-FIXATION
 N-FERTILIZER   :      323 kg/ha IN     3 APPLICATIONS
 RESIDUE/MANURE : INITIAL :     0 kg/ha ;    2222 kg/ha IN     1 APPLICATIONS
 ENVIRONM. OPT. : DAYL=    0.00  SRAD=    0.00  TMAX=    0.00  TMIN=    0.00
                  RAIN=    0.00  CO2 =    0.00  DEW =    0.00  WIND=    0.00
 SIMULATION OPT : WATER   :Y  NITROGEN:Y  N-FIX:N  PHOSPH :N  PESTS  :N
                  PHOTO   :C  ET      :R  INFIL:S  HYDROL :R  SOM    :G
                  CO2 418ppm  NSWIT   :1  EVAP :R  SOIL   :2  STEMP  :D
 MANAGEMENT OPT : PLANTING:R  IRRIG   :R  FERT :R  RESIDUE:R  HARVEST:M
                  WEATHER :M  TILLAGE :Y

*SUMMARY OF SOIL AND GENETIC INPUT PARAMETERS

   SOIL LOWER UPPER   SAT  EXTR  INIT   ROOT   BULK     pH    NO3    NH4    ORG
  DEPTH LIMIT LIMIT    SW    SW    SW   DIST   DENS                          C
   cm   cm3/cm3    cm3/cm3    cm3/cm3         g/cm3         ugN/g  ugN/g     %
-------------------------------------------------------------------------------
  0-  5 0.143 0.204 0.268 0.061 0.172   1.00   1.35   8.50  29.00  29.00   1.08
  5- 15 0.143 0.204 0.268 0.061 0.172   1.00   1.35   8.50  29.00  29.00   1.08
 15- 30 0.143 0.204 0.268 0.061 0.172   1.00   1.35   8.50  29.00  29.00   1.08
 30- 45 0.166 0.234 0.274 0.068 0.225   0.41   1.58   8.50  27.00  16.00   0.80
 45- 60 0.166 0.234 0.274 0.068 0.225   0.41   1.58   8.50  27.00  16.00   0.80
 60- 90 0.155 0.227 0.276 0.072 0.207   0.22   1.50   7.90  53.00  33.00   0.87
 90-120 0.188 0.263 0.308 0.075 0.263   0.12   1.38   8.00   0.01   0.01   0.40

TOT-120  19.6  27.8  33.8   8.3  26.0  <--cm   -  kg/ha-->  484.0  341.8 137370
SOIL ALBEDO    : 0.13      EVAPORATION LIMIT : 6.00         MIN. FACTOR  : 1.00
RUNOFF CURVE # :61.00      DRAINAGE RATE     : 0.60         FERT. FACTOR : 1.00

 Wheat            CULTIVAR: 474804-ENTRY 9            ECOTYPE: CI0001
   P1V   P1D    P5    G1    G2    G3 PHINT
   2.0  34.8 630.1  20.0  41.0  0.50  73.4


*SIMULATED CROP AND SOIL STATUS AT MAIN DEVELOPMENT STAGES
  
 RUN NO.      9   ROOTS ANATOMY                                               

 ...... DATE ......  GROWTH STAGE BIOMASS   LEAF       CROP N      STRESS
 YEARDOY DOM MON DAP ............. kg/ha AREA NUMBER  kg/ha   %   H2O    N
 2022327  23 Nov   0 7 Sowing         0  0.00   0.0     0   0.0  0.00  0.00
 2022328  24 Nov   1 8 Germinate      0  0.00   0.0     0   0.0  0.00  0.00
 2022330  26 Nov   3 9 Emergence      0  0.00   0.0     0   0.0  0.00  0.00
 2023029  29 Jan  67 1 Term Spklt  2214  3.12  15.5   100   4.5  0.22  0.09
 2023047  16 Feb  85 2 End Veg     4502  5.81  19.3   150   3.3  0.02  0.00
 2023060   1 Mar  98 3 End Ear Gr  6747  5.15  19.3   147   2.2  0.00  0.00
 2023074  15 Mar 112 4 Beg Gr Fil 10201  4.55  19.3   145   1.4  0.09  0.00
 2023107  17 Apr 145 5 End Gr Fil 17435  0.39  19.3   178   1.0  0.21  0.00
 2023107  17 Apr 145 6 Harvest    17435  0.39  19.3   178   1.0  0.57  0.00
  

*MAIN GROWTH AND DEVELOPMENT VARIABLES

@     VARIABLE                             SIMULATED     MEASURED
      --------                             ---------     --------
      Emergence (DAP)                            3            7
      Anthesis (DAP)                           102          101
      Maturity (DAP)                           145          145
      Product wt (kg dm/ha;no loss)           6313         6560
      Product unit weight (g dm)             0.041        0.043
      Product number (no/m2)                 15397        15412
      Product number (no/group)                5.6        -99.0
      Product harvest index (ratio)           0.36         0.33
      Maximum leaf area index                  5.8          5.8
      Final leaf number (one axis)            19.3        -99.0
      Final shoot number (#/m2)               2763          -99
      Canopy (tops) wt (kg dm/ha)            17435        20154
      Vegetative wt (kg dm/ha)               11122        13594
      Root wt (kg dm/ha)                      1075          -99
      Assimilate wt (kg dm/ha)               19816          -99
      Senesced wt (kg dm/ha)                   584          -99
      Reserves wt (kg dm/ha)                  5875          -99
      N uptake (kg/ha)                       202.8        -99.0
      N senesced (kg/ha)                       8.2        -99.0
      Above-ground N (kg/ha)                 177.6        -99.0
      Root N (kg/ha)                          17.9        -99.0
      Vegetative N (kg/ha)                    38.3        -99.0
      Product N (kg/ha)                      139.3        131.8
      Product N harvest index (ratio)         0.78       -99.00
      Product N (%)                            2.2          2.0
      Vegetative N (%)                         0.3        -99.0
[...]
   Dry Matter Productivity                  4.76 kg[DM]/m3[rain]          =   47.6 kg[DM]/ha per mm[rain]
   Yield Productivity                       1.49 kg[grain yield]/m3[rain] =   14.9 kg[yield]/ha per mm[rain]

 Evapotranspiration during growth season   111.4 mm[ET]
   Dry Matter Productivity                  3.76 kg[DM]/m3[ET]            =   37.6 kg[DM]/ha per mm[ET]
   Yield Productivity                       1.18 kg[grain yield]/m3[ET]   =   11.8 kg[yield]/ha per mm[ET]

 Transpiration during growth season         75.8 mm[EP]
   Dry Matter Productivity                  5.53 kg[DM]/m3[EP]            =   55.3 kg[DM]/ha per mm[EP]
   Yield Productivity                       1.73 kg[grain yield]/m3[EP]   =   17.3 kg[yield]/ha per mm[EP]

 Irrigation during growing season          120.0 mm[irrig]
   Dry Matter Productivity                  3.49 kg[DM]/m3[irrig]         =   34.9 kg[DM]/ha per mm[irrig]
   Yield Productivity                       1.09 kg[grain yield]/m3[irrig]=   10.9 kg[yield]/ha per mm[irrig]

 N applied during growing season           173.0 kg[N applied]/ha
   Dry Matter Productivity                  24.2 kg[DM]/kg[N applied]
   Yield Productivity                        7.6 kg[yield]/kg[N applied]

 N uptake during growing season             46.5 kg[N uptake]/ha
   Dry Matter Productivity                  90.2 kg[DM]/kg[N uptake]
   Yield Productivity                       28.3 kg[yield]/kg[N uptake]

--------------------------------------------------------------------------------------------------------------

          WHEAT YIELD :     1313 kg/ha    [Dry weight] 

**************************************************************************************************************
  

*DSSAT Cropping System Model Ver. 4.8.2.000 -release  JUN 21, 2025 19:12:09

*RUN  69        : DR23_G-13                 CSCER048 CIOB2302   13
 MODEL          : CSCER048 - Wheat
 EXPERIMENT     : CIOB2302 WH ROOTS ANATOMY DROUGHT
 DATA PATH      : C:\DSSAT48\Wheat\
 TREATMENT 13   : DR23_G-13                 CSCER048


 CROP           : Wheat            CULTIVAR : ENTRY 13         ECOTYPE :CI0001
 STARTING DATE  : SEP  1 2022
 PLANTING DATE  : DEC  3 2022      PLANTS/m2 :   150.0    ROW SPACING :  36.cm
 WEATHER        : CIOB   2022
 SOIL           : CCENEB2301     TEXTURE : C     -   CIMMYT CENEB 710
 SOIL INIT COND : DEPTH:120cm EXTR. H2O: 82.8mm  NO3:252.3kg/ha  NH4:205.5kg/ha
 WATER BALANCE  : IRRIGATE ON REPORTED DATE(S)
 IRRIGATION     :      120 mm IN     1 APPLICATIONS
 NITROGEN BAL.  : SOIL-N & N-UPTAKE SIMULATION; NO N-FIXATION
 N-FERTILIZER   :      173 kg/ha IN     2 APPLICATIONS
 RESIDUE/MANURE : INITIAL :     0 kg/ha ;    2222 kg/ha IN     1 APPLICATIONS
 ENVIRONM. OPT. : DAYL=    0.00  SRAD=    0.00  TMAX=    0.00  TMIN=    0.00
                  RAIN=    0.00  CO2 =    0.00  DEW =    0.00  WIND=    0.00
 SIMULATION OPT : WATER   :Y  NITROGEN:Y  N-FIX:N  PHOSPH :N  PESTS  :N
                  PHOTO   :C  ET      :R  INFIL:S  HYDROL :R  SOM    :G
                  CO2 418ppm  NSWIT   :1  EVAP :R  SOIL   :2  STEMP  :D
 MANAGEMENT OPT : PLANTING:R  IRRIG   :R  FERT :R  RESIDUE:R  HARVEST:M
                  WEATHER :M  TILLAGE :Y

*SUMMARY OF SOIL AND GENETIC INPUT PARAMETERS

   SOIL LOWER UPPER   SAT  EXTR  INIT   ROOT   BULK     pH    NO3    NH4    ORG
  DEPTH LIMIT LIMIT    SW    SW    SW   DIST   DENS                          C
   cm   cm3/cm3    cm3/cm3    cm3/cm3         g/cm3         ugN/g  ugN/g     %
-------------------------------------------------------------------------------
  0-  5 0.143 0.204 0.268 0.061 0.204   1.00   1.35   8.80  19.00  12.00   1.10
  5- 15 0.143 0.204 0.268 0.061 0.204   1.00   1.35   8.80  19.00  12.00   1.10
 15- 30 0.143 0.204 0.268 0.061 0.204   1.00   1.35   8.80  19.00  12.00   1.10
 30- 45 0.166 0.234 0.274 0.068 0.230   0.41   1.58   8.50  18.00  16.00   0.40
 45- 60 0.166 0.234 0.274 0.068 0.230   0.41   1.58   8.50  18.00  16.00   0.40
 60- 90 0.155 0.227 0.276 0.072 0.230   0.22   1.50   8.50  20.00  18.00   0.40
 90-120 0.188 0.263 0.308 0.075 0.263   0.12   1.38   8.00   0.01   0.01   0.40

TOT-120  19.6  27.8  33.8   8.3  27.8  <--cm   -  kg/ha-->  252.3  205.5  98070
SOIL ALBEDO    : 0.13      EVAPORATION LIMIT : 6.00         MIN. FACTOR  : 1.00
RUNOFF CURVE # :61.00      DRAINAGE RATE     : 0.60         FERT. FACTOR : 1.00

 Wheat            CULTIVAR: 542933-ENTRY 13           ECOTYPE: CI0001
   P1V   P1D    P5    G1    G2    G3 PHINT
   2.0  19.0 564.2  17.3  53.9  5.03  82.6


*SIMULATED CROP AND SOIL STATUS AT MAIN DEVELOPMENT STAGES
  
 RUN NO.     69   ROOTS ANATOMY DROUGHT                                       

 ...... DATE ......  GROWTH STAGE BIOMASS   LEAF       CROP N      STRESS
 YEARDOY DOM MON DAP ............. kg/ha AREA NUMBER  kg/ha   %   H2O    N
 2022337   3 Dec   0 7 Sowing         0  0.00   0.0     0   0.0  0.00  0.00
 2022338   4 Dec   1 8 Germinate      0  0.00   0.0     0   0.0  0.00  0.00
 2022339   5 Dec   2 9 Emergence      0  0.00   0.0     0   0.0  0.00  0.00
 2023029  29 Jan  57 1 Term Spklt   629  0.96  11.7    28   4.4  0.51  0.09
 2023047  16 Feb  75 2 End Veg      967  1.28  15.1    31   3.2  0.65  0.00
 2023060   1 Mar  88 3 End Ear Gr  1471  0.86  15.1    30   2.0  0.55  0.00
 2023074  15 Mar 102 4 Beg Gr Fil  1873  0.54  15.1    29   1.6  0.75  0.00
 2023104  14 Apr 132 5 End Gr Fil  4114  0.06  15.1    39   0.9  0.08  0.00
 2023104  14 Apr 132 6 Harvest     4114  0.06  15.1    39   0.9  0.00  0.00
  

*MAIN GROWTH AND DEVELOPMENT VARIABLES

@     VARIABLE                             SIMULATED     MEASURED
      --------                             ---------     --------
      Emergence (DAP)                            2            6
      Anthesis (DAP)                            92           86
      Maturity (DAP)                           132          118
      Product wt (kg dm/ha;no loss)           1415         3437
      Product unit weight (g dm)             0.054        0.039
      Product number (no/m2)                  2625         8856
      Product number (no/group)                7.3        -99.0
      Product harvest index (ratio)           0.34         0.41
      Maximum leaf area index                  1.3          4.6
      Final leaf number (one axis)            15.1        -99.0
      Final shoot number (#/m2)                359          -99
      Canopy (tops) wt (kg dm/ha)             4114         8377
      Vegetative wt (kg dm/ha)                2699         4940
      Root wt (kg dm/ha)                       358          -99
      Assimilate wt (kg dm/ha)                4990          -99
      Senesced wt (kg dm/ha)                   330          -99
      Reserves wt (kg dm/ha)                  1660          -99
      N uptake (kg/ha)                        48.1        -99.0
      N senesced (kg/ha)                       4.6        -99.0
      Above-ground N (kg/ha)                  38.9        -99.0
      Root N (kg/ha)                           6.0        -99.0
      Vegetative N (kg/ha)                     7.5        -99.0
      Product N (kg/ha)                       31.4         68.3
      Product N harvest index (ratio)         0.81       -99.00
      Product N (%)                            2.2          2.0
      Vegetative N (%)                         0.3        -99.0
      Leaf+stem wt,anthesis (kg dm/ha)        1599          -99
      Leaf+stem N,anthesis (kg/ha)            29.4        -99.0
      Leaf N,anthesis (%)                      3.0        -99.0

*ENVIRONMENTAL AND STRESS FACTORS

 |-----Development Phase------|-------------Environment--------------|----------------Stress-----------------|
                              |--------Average-------|---Cumulative--|         (0=Min, 1=Max Stress)         |
                         Time  Temp  Temp Solar Photop         Evapo |----Water---|--Nitrogen--|--Phosphorus-|
                         Span   Max   Min   Rad  [day]   Rain  Trans  Photo         Photo         Photo
                         days    °C    °C MJ/m2     hr     mm     mm  synth Growth ' synth Growth  synth Growth
--------------------------------------------------------------------------------------------------------------
 Germinate  - Term Spklt   55  25.7   6.5  14.4  11.36   10.0   33.5  0.513  0.609  0.093  0.093 -99.00 -99.00
 Term Spklt - End Veg      18  25.1   5.9  15.8  11.81    3.6   12.2  0.650  0.731  0.000  0.000 -99.00 -99.00
 End Veg    - End Ear Gr   13  23.5   8.2  15.0  12.15    8.6   15.8  0.547  0.648  0.000  0.000 -99.00 -99.00
 End Ear Gr - Beg Gr Fil   14  29.0   7.3  21.5  12.50    0.1    6.7  0.752  0.809  0.000  0.000 -99.00 -99.00
 Beg Gr Fil - End Gr Fil   30  29.0   8.9  23.3  13.11   65.8   41.9  0.082  0.178  0.000  0.000 -99.00 -99.00
  
 Germinate  - End Gr Fil  130  26.5   7.2  17.5  12.03   88.1  110.2  0.462  0.552  0.039  0.039 -99.00 -99.00
--------------------------------------------------------------------------------------------------------------


*RESOURCE PRODUCTIVITY

 Growing season length: 130 days 

 Precipitation during growth season         88.1 mm[rain]
   Dry Matter Productivity                  4.67 kg[DM]/m3[rain]          =   46.7 kg[DM]/ha per mm[rain]
   Yield Productivity                       1.61 kg[grain yield]/m3[rain] =   16.1 kg[yield]/ha per mm[rain]

 Evapotranspiration during growth season   110.2 mm[ET]
   Dry Matter Productivity                  3.73 kg[DM]/m3[ET]            =   37.3 kg[DM]/ha per mm[ET]
   Yield Productivity                       1.28 kg[grain yield]/m3[ET]   =   12.8 kg[yield]/ha per mm[ET]

 Transpiration during growth season         74.4 mm[EP]
   Dry Matter Productivity                  5.53 kg[DM]/m3[EP]            =   55.3 kg[DM]/ha per mm[EP]
   Yield Productivity                       1.90 kg[grain yield]/m3[EP]   =   19.0 kg[yield]/ha per mm[EP]

 Irrigation during growing season          120.0 mm[irrig]
   Dry Matter Productivity                  3.43 kg[DM]/m3[irrig]         =   34.3 kg[DM]/ha per mm[irrig]
   Yield Productivity                       1.18 kg[grain yield]/m3[irrig]=   11.8 kg[yield]/ha per mm[irrig]

 N applied during growing season           173.0 kg[N applied]/ha
   Dry Matter Productivity                  23.8 kg[DM]/kg[N applied]
   Yield Productivity                        8.2 kg[yield]/kg[N applied]

 N uptake during growing season             48.1 kg[N uptake]/ha
   Dry Matter Productivity                  85.6 kg[DM]/kg[N uptake]
   Yield Productivity                       29.4 kg[yield]/kg[N uptake]

--------------------------------------------------------------------------------------------------------------

          WHEAT YIELD :     1415 kg/ha    [Dry weight] 

**************************************************************************************************************
  

*DSSAT Cropping System Model Ver. 4.8.2.000 -release  JUN 21, 2025 19:12:09

*RUN  70        : DR23_G-14                 CSCER048 CIOB2302   14
 MODEL          : CSCER048 - Wheat
 EXPERIMENT     : CIOB2302 WH ROOTS ANATOMY DROUGHT
 DATA PATH      : C:\DSSAT48\Wheat\
 TREATMENT 14   : DR23_G-14                 CSCER048


 CROP           : Wheat            CULTIVAR : ENTRY 14         ECOTYPE :CI0001
 STARTING DATE  : SEP  1 2022
 PLANTING DATE  : DEC  3 2022      PLANTS/m2 :   150.0    ROW SPACING :  36.cm
 WEATHER        : CIOB   2022
 SOIL           : CCENEB2301     TEXTURE : C     -   CIMMYT CENEB 710
 SOIL INIT COND : DEPTH:120cm EXTR. H2O: 82.8mm  NO3:252.3kg/ha  NH4:205.5kg/ha
 WATER BALANCE  : IRRIGATE ON REPORTED DATE(S)
 IRRIGATION     :      120 mm IN     1 APPLICATIONS
 NITROGEN BAL.  : SOIL-N & N-UPTAKE SIMULATION; NO N-FIXATION
 N-FERTILIZER   :      173 kg/ha IN     2 APPLICATIONS
 RESIDUE/MANURE : INITIAL :     0 kg/ha ;    2222 kg/ha IN     1 APPLICATIONS
 ENVIRONM. OPT. : DAYL=    0.00  SRAD=    0.00  TMAX=    0.00  TMIN=    0.00
                  RAIN=    0.00  CO2 =    0.00  DEW =    0.00  WIND=    0.00
 SIMULATION OPT : WATER   :Y  NITROGEN:Y  N-FIX:N  PHOSPH :N  PESTS  :N
                  PHOTO   :C  ET      :R  INFIL:S  HYDROL :R  SOM    :G
                  CO2 418ppm  NSWIT   :1  EVAP :R  SOIL   :2  STEMP  :D
 MANAGEMENT OPT : PLANTING:R  IRRIG   :R  FERT :R  RESIDUE:R  HARVEST:M
                  WEATHER :M  TILLAGE :Y

*SUMMARY OF SOIL AND GENETIC INPUT PARAMETERS

   SOIL LOWER UPPER   SAT  EXTR  INIT   ROOT   BULK     pH    NO3    NH4    ORG
  DEPTH LIMIT LIMIT    SW    SW    SW   DIST   DENS                          C
   cm   cm3/cm3    cm3/cm3    cm3/cm3         g/cm3         ugN/g  ugN/g     %
-------------------------------------------------------------------------------
  0-  5 0.143 0.204 0.268 0.061 0.204   1.00   1.35   8.80  19.00  12.00   1.10
  5- 15 0.143 0.204 0.268 0.061 0.204   1.00   1.35   8.80  19.00  12.00   1.10
 15- 30 0.143 0.204 0.268 0.061 0.204   1.00   1.35   8.80  19.00  12.00   1.10
 30- 45 0.166 0.234 0.274 0.068 0.230   0.41   1.58   8.50  18.00  16.00   0.40
 45- 60 0.166 0.234 0.274 0.068 0.230   0.41   1.58   8.50  18.00  16.00   0.40
 60- 90 0.155 0.227 0.276 0.072 0.230   0.22   1.50   8.50  20.00  18.00   0.40
 90-120 0.188 0.263 0.308 0.075 0.263   0.12   1.38   8.00   0.01   0.01   0.40

TOT-120  19.6  27.8  33.8   8.3  27.8  <--cm   -  kg/ha-->  252.3  205.5  98070
SOIL ALBEDO    : 0.13      EVAPORATION LIMIT : 6.00         MIN. FACTOR  : 1.00
RUNOFF CURVE # :61.00      DRAINAGE RATE     : 0.60         FERT. FACTOR : 1.00

 Wheat            CULTIVAR: 589328-ENTRY 14           ECOTYPE: CI0001
   P1V   P1D    P5    G1    G2    G3 PHINT
   2.0  16.7 568.9  22.6  44.6  4.04  91.2


*SIMULATED CROP AND SOIL STATUS AT MAIN DEVELOPMENT STAGES
  
 RUN NO.     70   ROOTS ANATOMY DROUGHT                                       

 ...... DATE ......  GROWTH STAGE BIOMASS   LEAF       CROP N      STRESS
 YEARDOY DOM MON DAP ............. kg/ha AREA NUMBER  kg/ha   %   H2O    N
 2022337   3 Dec   0 7 Sowing         0  0.00   0.0     0   0.0  0.00  0.00
 2022338   4 Dec   1 8 Germinate      0  0.00   0.0     0   0.0  0.00  0.00
 2022339   5 Dec   2 9 Emergence      0  0.00   0.0     0   0.0  0.00  0.00
 2023029  29 Jan  57 1 Term Spklt   647  1.03  10.7    29   4.4  0.52  0.09
 2023047  16 Feb  75 2 End Veg      982  1.34  13.8    31   3.2  0.66  0.00
 2023059  28 Feb  87 3 End Ear Gr  1450  0.92  13.8    30   2.1  0.60  0.00
 2023074  15 Mar 102 4 Beg Gr Fil  1890  0.58  13.8    30   1.6  0.72  0.00
 2023104  14 Apr 132 5 End Gr Fil  4169  0.07  13.8    42   1.0  0.13  0.00
 2023104  14 Apr 132 6 Harvest     4169  0.07  13.8    42   1.0  0.00  0.00
  

*MAIN GROWTH AND DEVELOPMENT VARIABLES

@     VARIABLE                             SIMULATED     MEASURED
      --------                             ---------     --------
      Emergence (DAP)                            2            6
      Anthesis (DAP)                            92           83
      Maturity (DAP)                           132          114
      Product wt (kg dm/ha;no loss)           1546         3107
      Product unit weight (g dm)             0.045        0.034
      Product number (no/m2)                  3467         9175
      Product number (no/group)               10.2        -99.0
      Product harvest index (ratio)           0.37         0.44
      Maximum leaf area index                  1.3          4.3
      Final leaf number (one axis)            13.8        -99.0
      Final shoot number (#/m2)                340          -99
      Canopy (tops) wt (kg dm/ha)             4169         7086
      Vegetative wt (kg dm/ha)                2623         3979
      Root wt (kg dm/ha)                       358          -99
      Assimilate wt (kg dm/ha)                5030          -99
      Senesced wt (kg dm/ha)                   315          -99
      Reserves wt (kg dm/ha)                  1571          -99
      N uptake (kg/ha)                        51.0        -99.0
      N senesced (kg/ha)                       4.4        -99.0
      Above-ground N (kg/ha)                  42.1        -99.0
      Root N (kg/ha)                           6.0        -99.0
      Vegetative N (kg/ha)                     7.6        -99.0
      Product N (kg/ha)                       34.4         59.1
      Product N harvest index (ratio)         0.82       -99.00
      Product N (%)                            2.2          1.9
      Vegetative N (%)                         0.3        -99.0
      Leaf+stem wt,anthesis (kg dm/ha)        1617          -99
      Leaf+stem N,anthesis (kg/ha)            29.7        -99.0
      Leaf N,anthesis (%)                      3.0        -99.0

*ENVIRONMENTAL AND STRESS FACTORS

 |-----Development Phase------|-------------Environment--------------|----------------Stress-----------------|
                              |--------Average-------|---Cumulative--|         (0=Min, 1=Max Stress)         |
                         Time  Temp  Temp Solar Photop         Evapo |----Water---|--Nitrogen--|--Phosphorus-|
                         Span   Max   Min   Rad  [day]   Rain  Trans  Photo         Photo         Photo
                         days    °C    °C MJ/m2     hr     mm     mm  synth Growth ' synth Growth  synth Growth
--------------------------------------------------------------------------------------------------------------
 Germinate  - Term Spklt   55  25.7   6.5  14.4  11.36   10.0   33.6  0.524  0.617  0.094  0.094 -99.00 -99.00
 Term Spklt - End Veg      18  25.1   5.9  15.8  11.81    3.6   12.2  0.662  0.740  0.000  0.000 -99.00 -99.00
 End Veg    - End Ear Gr   12  23.8   8.3  15.7  12.14    8.6   15.3  0.599  0.689  0.000  0.000 -99.00 -99.00
 End Ear Gr - Beg Gr Fil   15  28.3   7.3  20.5  12.49    0.1    7.2  0.717  0.782  0.000  0.000 -99.00 -99.00
 Beg Gr Fil - End Gr Fil   30  29.0   8.9  23.3  13.11   65.8   42.4  0.132  0.227  0.000  0.000 -99.00 -99.00
  
 Germinate  - End Gr Fil  130  26.5   7.2  17.5  12.03   88.1  110.7  0.482  0.570  0.040  0.040 -99.00 -99.00
--------------------------------------------------------------------------------------------------------------


*RESOURCE PRODUCTIVITY

 Growing season length: 130 days 

 Precipitation during growth season         88.1 mm[rain]
   Dry Matter Productivity                  4.73 kg[DM]/m3[rain]          =   47.3 kg[DM]/ha per mm[rain]
   Yield Productivity                       1.76 kg[grain yield]/m3[rain] =   17.6 kg[yield]/ha per mm[rain]

 Evapotranspiration during growth season   110.7 mm[ET]
   Dry Matter Productivity                  3.77 kg[DM]/m3[ET]            =   37.7 kg[DM]/ha per mm[ET]
   Yield Productivity                       1.40 kg[grain yield]/m3[ET]   =   14.0 kg[yield]/ha per mm[ET]

 Transpiration during growth season         75.2 mm[EP]
   Dry Matter Productivity                  5.55 kg[DM]/m3[EP]            =   55.5 kg[DM]/ha per mm[EP]
   Yield Productivity                       2.06 kg[grain yield]/m3[EP]   =   20.6 kg[yield]/ha per mm[EP]

 Irrigation during growing season          120.0 mm[irrig]
   Dry Matter Productivity                  3.47 kg[DM]/m3[irrig]         =   34.7 kg[DM]/ha per mm[irrig]
   Yield Productivity                       1.29 kg[grain yield]/m3[irrig]=   12.9 kg[yield]/ha per mm[irrig]

 N applied during growing season           173.0 kg[N applied]/ha
   Dry Matter Productivity                  24.1 kg[DM]/kg[N applied]
   Yield Productivity                        8.9 kg[yield]/kg[N applied]

 N uptake during growing season             51.0 kg[N uptake]/ha
   Dry Matter Productivity                  81.7 kg[DM]/kg[N uptake]
   Yield Productivity                       30.3 kg[yield]/kg[N uptake]

--------------------------------------------------------------------------------------------------------------

          WHEAT YIELD :     1546 kg/ha    [Dry weight] 

**************************************************************************************************************
