*SIMULATION OVERVIEW FILE
  

*DSSAT Cropping System Model Ver. 4.8.2.000 -release  AUG 18, 2025 20:50:00

*RUN   1        : WW23_G-1                  CSCER048 CIOB2301    1
 MODEL          : CSCER048 - Wheat
 EXPERIMENT     : CIOB2301 WH ROOTS ANATOMY
 DATA PATH      : C:\DSSAT48\Wheat\
 TREATMENT  1   : WW23_G-1                  CSCER048


 CROP           : Wheat            CULTIVAR : ENTRY 1          ECOTYPE :CI0701
 STARTING DATE  : SEP  1 2022
 PLANTING DATE  : NOV 23 2022      PLANTS/m2 :   137.0    ROW SPACING :  20.cm
 WEATHER        : CIOB   2022
 SOIL           : CCENEB2301     TEXTURE : C     -   CIMMYT CENEB 710
 SOIL INIT COND : DEPTH:120cm EXTR. H2O: 82.8mm  NO3:484.0kg/ha  NH4:341.8kg/ha
 WATER BALANCE  : IRRIGATE ON REPORTED DATE(S)
 IRRIGATION     :      525 mm IN     9 APPLICATIONS
 NITROGEN BAL.  : SOIL-N & N-UPTAKE SIMULATION; NO N-FIXATION
 N-FERTILIZER   :      323 kg/ha IN     3 APPLICATIONS
 RESIDUE/MANURE : INITIAL :     0 kg/ha ;    2222 kg/ha IN     1 APPLICATIONS
 ENVIRONM. OPT. : DAYL=    0.00  SRAD=    0.00  TMAX=    0.00  TMIN=    0.00
                  RAIN=    0.00  CO2 =    0.00  DEW =    0.00  WIND=    0.00
 SIMULATION OPT : WATER   :Y  NITROGEN:Y  N-FIX:N  PHOSPH :N  PESTS  :N
                  PHOTO   :C  ET      :R  INFIL:S  HYDROL :R  SOM    :G
                  CO2 418ppm  NSWIT   :1  EVAP :R  SOIL   :2  STEMP  :D
 MANAGEMENT OPT : PLANTING:R  IRRIG   :R  FERT :R  RESIDUE:R  HARVEST:M
                  WEATHER :M  TILLAGE :Y

*SUMMARY OF SOIL AND GENETIC INPUT PARAMETERS

   SOIL LOWER UPPER   SAT  EXTR  INIT   ROOT   BULK     pH    NO3    NH4    ORG
  DEPTH LIMIT LIMIT    SW    SW    SW   DIST   DENS                          C
   cm   cm3/cm3    cm3/cm3    cm3/cm3         g/cm3         ugN/g  ugN/g     %
-------------------------------------------------------------------------------
  0-  5 0.143 0.204 0.268 0.061 0.172   1.00   1.35   8.50  29.00  29.00   1.08
  5- 15 0.143 0.204 0.268 0.061 0.172   1.00   1.35   8.50  29.00  29.00   1.08
 15- 30 0.143 0.204 0.268 0.061 0.172   1.00   1.35   8.50  29.00  29.00   1.08
 30- 45 0.166 0.234 0.274 0.068 0.225   0.41   1.58   8.50  27.00  16.00   0.80
 45- 60 0.166 0.234 0.274 0.068 0.225   0.41   1.58   8.50  27.00  16.00   0.80
 60- 90 0.155 0.227 0.276 0.072 0.207   0.22   1.50   7.90  53.00  33.00   0.87
 90-120 0.188 0.263 0.308 0.075 0.263   0.12   1.38   8.00   0.01   0.01   0.40

TOT-120  19.6  27.8  33.8   8.3  26.0  <--cm   -  kg/ha-->  484.0  341.8 137370
SOIL ALBEDO    : 0.13      EVAPORATION LIMIT : 6.00         MIN. FACTOR  : 1.00
RUNOFF CURVE # :61.00      DRAINAGE RATE     : 0.60         FERT. FACTOR : 1.00

 Wheat            CULTIVAR: 555175-ENTRY 1            ECOTYPE: CI0701
   P1V   P1D    P5    G1    G2    G3 PHINT
   2.0  43.2 578.9  21.7  47.2  6.99 114.6


*SIMULATED CROP AND SOIL STATUS AT MAIN DEVELOPMENT STAGES
  
 RUN NO.      1   ROOTS ANATOMY                                               

 ...... DATE ......  GROWTH STAGE BIOMASS   LEAF       CROP N      STRESS
 YEARDOY DOM MON DAP ............. kg/ha AREA NUMBER  kg/ha   %   H2O    N
 2022327  23 Nov   0 7 Sowing         0  0.00   0.0     0   0.0  0.00  0.00
 2022328  24 Nov   1 8 Germinate      0  0.00   0.0     0   0.0  0.00  0.00
 2022330  26 Nov   3 9 Emergence      0  0.00   0.0     0   0.0  0.00  0.00
 2023025  25 Jan  63 1 Term Spklt  1799  3.10   9.8    84   4.7  0.29  0.11
 2023043  12 Feb  81 2 End Veg     3903  5.71  12.2   129   3.3  0.07  0.00
 2023056  25 Feb  94 3 End Ear Gr  6074  4.82  12.2   126   2.1  0.00  0.00
 2023072  13 Mar 110 4 Beg Gr Fil  9583  3.74  12.2   125   1.3  0.10  0.00
 2023102  12 Apr 140 5 End Gr Fil 16643  0.83  12.2   185   1.1  0.10  0.00
 2023102  12 Apr 140 6 Harvest    16643  0.83  12.2   185   1.1  0.52  0.00
  
 BIOMASS = Above-ground dry wt (kg/ha)
 LEAF AREA  = Leaf area index (m2/m2)
 LEAF NUMBER  = Leaf number produced on main axis
 CROP N  = Above-ground N (kg/ha)
 CROP N% = Above-ground N conc (%)
 H2O STRESS = Photosynthesis stress,average (0-1,0=none)
 N STRESS = Photosynthesis stress,average (0-1,0=none)
  

*MAIN GROWTH AND DEVELOPMENT VARIABLES

@     VARIABLE                             SIMULATED     MEASURED
      --------                             ---------     --------
      Emergence (DAP)                            3            7
      Anthesis (DAP)                            97           97
      Maturity (DAP)                           140          140
      Product wt (kg dm/ha;no loss)           6828         6797
      Product unit weight (g dm)             0.047        0.047
      Product number (no/m2)                 14465        14451
      Product number (no/group)               33.8        -99.0
      Product harvest index (ratio)           0.41         0.43
      Maximum leaf area index                  5.7          5.7
      Final leaf number (one axis)            12.2        -99.0
      Final shoot number (#/m2)                428          -99
      Canopy (tops) wt (kg dm/ha)            16643        15757
      Vegetative wt (kg dm/ha)                9815         8960
      Root wt (kg dm/ha)                       958          -99
      Assimilate wt (kg dm/ha)               18539          -99
      Senesced wt (kg dm/ha)                   302          -99
      Reserves wt (kg dm/ha)                  4670          -99
      N uptake (kg/ha)                       204.2        -99.0
      N senesced (kg/ha)                       4.1        -99.0
      Above-ground N (kg/ha)                 184.8        -99.0
      Root N (kg/ha)                          16.1        -99.0
      Vegetative N (kg/ha)                    38.3        -99.0
      Product N (kg/ha)                      146.5        139.5
      Product N harvest index (ratio)         0.79       -99.00
      Product N (%)                            2.1          2.1
      Vegetative N (%)                         0.4        -99.0
      Leaf+stem wt,anthesis (kg dm/ha)        6780          -99
      Leaf+stem N,anthesis (kg/ha)           125.8        -99.0
      Leaf N,anthesis (%)                      3.0        -99.0

  Seed N must be added to N uptake to obtain a         
  balance with N in above-ground plus root material    

  Measured data are obtained from the A file,either    
  directly or by calculation from other other variables
  using the expressions given below:                   
                                                       
  Product wt       Harvest wt (HWAH) /                 
                               (Harvest%/100) (HPC)    
  Canopy wt        Grain wt (HWAM)+Vegetative wt (VWAm)
  Vegetative wt    Canopy wt (CWAM) - grain wt (HWAM)  
    = leaf+stem+retained dead material                 
  Product unit wt  Grain yield (HWAM)/Grain # (G#AM)   
  Product #/area   Product#/tiller (H#SM) *            
                                   tiller number (T#AM)
  Product #/group  Product#/area (H#AM) /              
                                tiller number (T#AM)   
  Harvest index    Product wt (HWAM)/Canopy wt.(CWAM)  
                                                       
  The same procedure is followed for nitrogen aspects  


*ENVIRONMENTAL AND STRESS FACTORS

 |-----Development Phase------|-------------Environment--------------|----------------Stress-----------------|
                              |--------Average-------|---Cumulative--|         (0=Min, 1=Max Stress)         |
                         Time  Temp  Temp Solar Photop         Evapo |----Water---|--Nitrogen--|--Phosphorus-|
                         Span   Max   Min   Rad  [day]   Rain  Trans  Photo         Photo         Photo
                         days    °C    °C MJ/m2     hr     mm     mm  synth Growth ' synth Growth  synth Growth
--------------------------------------------------------------------------------------------------------------
 Germinate  - Term Spklt   60  26.3   7.2  14.3  11.35   10.0   89.3  0.291  0.391  0.108  0.108 -99.00 -99.00
 Term Spklt - End Veg      18  25.7   5.6  15.7  11.73    0.1   52.1  0.069  0.124  0.000  0.000 -99.00 -99.00
 End Veg    - End Ear Gr   13  22.7   8.0  14.8  12.06   12.1   36.9  0.003  0.035  0.000  0.000 -99.00 -99.00
 End Ear Gr - Beg Gr Fil   16  27.6   7.0  20.3  12.42    0.1   60.1  0.104  0.154  0.000  0.000 -99.00 -99.00
 Beg Gr Fil - End Gr Fil   30  29.1   8.7  23.2  13.05   65.8  121.8  0.101  0.139  0.000  0.000 -99.00 -99.00
  
 Germinate  - End Gr Fil  137  26.7   7.4  17.2  11.96   88.1  360.2  0.171  0.239  0.047  0.047 -99.00 -99.00
--------------------------------------------------------------------------------------------------------------


*RESOURCE PRODUCTIVITY

 Growing season length: 137 days 

 Precipitation during growth season         88.1 mm[rain]
   Dry Matter Productivity                 18.89 kg[DM]/m3[rain]          =  188.9 kg[DM]/ha per mm[rain]
   Yield Productivity                       7.75 kg[grain yield]/m3[rain] =   77.5 kg[yield]/ha per mm[rain]

 Evapotranspiration during growth season   360.2 mm[ET]
   Dry Matter Productivity                  4.62 kg[DM]/m3[ET]            =   46.2 kg[DM]/ha per mm[ET]
   Yield Productivity                       1.90 kg[grain yield]/m3[ET]   =   19.0 kg[yield]/ha per mm[ET]

 Transpiration during growth season        291.3 mm[EP]
   Dry Matter Productivity                  5.71 kg[DM]/m3[EP]            =   57.1 kg[DM]/ha per mm[EP]
   Yield Productivity                       2.34 kg[grain yield]/m3[EP]   =   23.4 kg[yield]/ha per mm[EP]

 Irrigation during growing season          525.1 mm[irrig]
   Dry Matter Productivity                  3.17 kg[DM]/m3[irrig]         =   31.7 kg[DM]/ha per mm[irrig]
   Yield Productivity                       1.30 kg[grain yield]/m3[irrig]=   13.0 kg[yield]/ha per mm[irrig]

 N applied during growing season           323.0 kg[N applied]/ha
   Dry Matter Productivity                  51.5 kg[DM]/kg[N applied]
   Yield Productivity                       21.1 kg[yield]/kg[N applied]

 N uptake during growing season            204.2 kg[N uptake]/ha
   Dry Matter Productivity                  81.5 kg[DM]/kg[N uptake]
   Yield Productivity                       33.4 kg[yield]/kg[N uptake]

--------------------------------------------------------------------------------------------------------------

          WHEAT YIELD :     6828 kg/ha    [Dry weight] 

**************************************************************************************************************
  

*DSSAT Cropping System Model Ver. 4.8.2.000 -release  AUG 18, 2025 20:50:00

*RUN   2        : WW23_G-2                  CSCER048 CIOB2301    2
 MODEL          : CSCER048 - Wheat
 EXPERIMENT     : CIOB2301 WH ROOTS ANATOMY
 DATA PATH      : C:\DSSAT48\Wheat\
 TREATMENT  2   : WW23_G-2                  CSCER048


 CROP           : Wheat            CULTIVAR : ENTRY 2          ECOTYPE :CI0702
 STARTING DATE  : SEP  1 2022
 PLANTING DATE  : NOV 23 2022      PLANTS/m2 :   137.0    ROW SPACING :  20.cm
 WEATHER        : CIOB   2022
 SOIL           : CCENEB2301     TEXTURE : C     -   CIMMYT CENEB 710
 SOIL INIT COND : DEPTH:120cm EXTR. H2O: 82.8mm  NO3:484.0kg/ha  NH4:341.8kg/ha
 WATER BALANCE  : IRRIGATE ON REPORTED DATE(S)
 IRRIGATION     :      525 mm IN     9 APPLICATIONS
 NITROGEN BAL.  : SOIL-N & N-UPTAKE SIMULATION; NO N-FIXATION
 N-FERTILIZER   :      323 kg/ha IN     3 APPLICATIONS
 RESIDUE/MANURE : INITIAL :     0 kg/ha ;    2222 kg/ha IN     1 APPLICATIONS
 ENVIRONM. OPT. : DAYL=    0.00  SRAD=    0.00  TMAX=    0.00  TMIN=    0.00
                  RAIN=    0.00  CO2 =    0.00  DEW =    0.00  WIND=    0.00
 SIMULATION OPT : WATER   :Y  NITROGEN:Y  N-FIX:N  PHOSPH :N  PESTS  :N
                  PHOTO   :C  ET      :R  INFIL:S  HYDROL :R  SOM    :G
                  CO2 418ppm  NSWIT   :1  EVAP :R  SOIL   :2  STEMP  :D
 MANAGEMENT OPT : PLANTING:R  IRRIG   :R  FERT :R  RESIDUE:R  HARVEST:M
                  WEATHER :M  TILLAGE :Y

*SUMMARY OF SOIL AND GENETIC INPUT PARAMETERS

   SOIL LOWER UPPER   SAT  EXTR  INIT   ROOT   BULK     pH    NO3    NH4    ORG
  DEPTH LIMIT LIMIT    SW    SW    SW   DIST   DENS                          C
   cm   cm3/cm3    cm3/cm3    cm3/cm3         g/cm3         ugN/g  ugN/g     %
-------------------------------------------------------------------------------
  0-  5 0.143 0.204 0.268 0.061 0.172   1.00   1.35   8.50  29.00  29.00   1.08
  5- 15 0.143 0.204 0.268 0.061 0.172   1.00   1.35   8.50  29.00  29.00   1.08
 15- 30 0.143 0.204 0.268 0.061 0.172   1.00   1.35   8.50  29.00  29.00   1.08
 30- 45 0.166 0.234 0.274 0.068 0.225   0.41   1.58   8.50  27.00  16.00   0.80
 45- 60 0.166 0.234 0.274 0.068 0.225   0.41   1.58   8.50  27.00  16.00   0.80
 60- 90 0.155 0.227 0.276 0.072 0.207   0.22   1.50   7.90  53.00  33.00   0.87
 90-120 0.188 0.263 0.308 0.075 0.263   0.12   1.38   8.00   0.01   0.01   0.40

TOT-120  19.6  27.8  33.8   8.3  26.0  <--cm   -  kg/ha-->  484.0  341.8 137370
SOIL ALBEDO    : 0.13      EVAPORATION LIMIT : 6.00         MIN. FACTOR  : 1.00
RUNOFF CURVE # :61.00      DRAINAGE RATE     : 0.60         FERT. FACTOR : 1.00

 Wheat            CULTIVAR: 457793-ENTRY 2            ECOTYPE: CI0702
   P1V   P1D    P5    G1    G2    G3 PHINT
   2.0  43.1 578.0  23.6  42.3  4.08 101.6


*SIMULATED CROP AND SOIL STATUS AT MAIN DEVELOPMENT STAGES
  
 RUN NO.      2   ROOTS ANATOMY                                               

 ...... DATE ......  GROWTH STAGE BIOMASS   LEAF       CROP N      STRESS
 YEARDOY DOM MON DAP ............. kg/ha AREA NUMBER  kg/ha   %   H2O    N
 2022327  23 Nov   0 7 Sowing         0  0.00   0.0     0   0.0  0.00  0.00
 2022328  24 Nov   1 8 Germinate      0  0.00   0.0     0   0.0  0.00  0.00
 2022330  26 Nov   3 9 Emergence      0  0.00   0.0     0   0.0  0.00  0.00
 2023024  24 Jan  62 1 Term Spklt  1873  3.13  10.8    87   4.7  0.15  0.08
 2023043  12 Feb  81 2 End Veg     4176  6.14  13.7   137   3.3  0.01  0.00
 2023056  25 Feb  94 3 End Ear Gr  6408  5.23  13.7   134   2.1  0.00  0.00
 2023071  12 Mar 109 4 Beg Gr Fil  9842  4.30  13.7   133   1.4  0.08  0.00
 2023101  11 Apr 139 5 End Gr Fil 17343  2.07  13.7   196   1.1  0.10  0.00
 2023101  11 Apr 139 6 Harvest    17343  2.07  13.7   196   1.1  0.63  0.00
  

*MAIN GROWTH AND DEVELOPMENT VARIABLES

@     VARIABLE                             SIMULATED     MEASURED
      --------                             ---------     --------
      Emergence (DAP)                            3            7
      Anthesis (DAP)                            96           96
      Maturity (DAP)                           139          139
      Product wt (kg dm/ha;no loss)           6926         6933
      Product unit weight (g dm)             0.042        0.042
      Product number (no/m2)                 16375        16392
      Product number (no/group)               20.9        -99.0
      Product harvest index (ratio)           0.40         0.41
      Maximum leaf area index                  6.1          6.1
      Final leaf number (one axis)            13.7        -99.0
      Final shoot number (#/m2)                785          -99
      Canopy (tops) wt (kg dm/ha)            17343        16796
      Vegetative wt (kg dm/ha)               10416         9863
      Root wt (kg dm/ha)                       969          -99
      Assimilate wt (kg dm/ha)               19268          -99
      Senesced wt (kg dm/ha)                   312          -99
      Reserves wt (kg dm/ha)                  4684          -99
      N uptake (kg/ha)                       215.4        -99.0
      N senesced (kg/ha)                       4.3        -99.0
      Above-ground N (kg/ha)                 195.6        -99.0
      Root N (kg/ha)                          16.3        -99.0
      Vegetative N (kg/ha)                    47.9        -99.0
      Product N (kg/ha)                      147.8        142.3
      Product N harvest index (ratio)         0.76       -99.00
      Product N (%)                            2.1          2.1
      Vegetative N (%)                         0.5        -99.0
      Leaf+stem wt,anthesis (kg dm/ha)        6909          -99
      Leaf+stem N,anthesis (kg/ha)           133.8        -99.0
      Leaf N,anthesis (%)                      3.1        -99.0

*ENVIRONMENTAL AND STRESS FACTORS

 |-----Development Phase------|-------------Environment--------------|----------------Stress-----------------|
                              |--------Average-------|---Cumulative--|         (0=Min, 1=Max Stress)         |
                         Time  Temp  Temp Solar Photop         Evapo |----Water---|--Nitrogen--|--Phosphorus-|
                         Span   Max   Min   Rad  [day]   Rain  Trans  Photo         Photo         Photo
                         days    °C    °C MJ/m2     hr     mm     mm  synth Growth ' synth Growth  synth Growth
--------------------------------------------------------------------------------------------------------------
 Germinate  - Term Spklt   59  26.3   7.3  14.2  11.34   10.0   91.4  0.151  0.245  0.082  0.082 -99.00 -99.00
 Term Spklt - End Veg      19  25.6   5.5  15.8  11.72    0.1   58.3  0.013  0.034  0.000  0.000 -99.00 -99.00
 End Veg    - End Ear Gr   13  22.7   8.0  14.8  12.06   12.1   37.0  0.000  0.000  0.000  0.000 -99.00 -99.00
 End Ear Gr - Beg Gr Fil   15  27.3   6.7  20.1  12.41    0.1   56.6  0.083  0.132  0.000  0.000 -99.00 -99.00
 Beg Gr Fil - End Gr Fil   30  29.1   8.8  23.1  13.02   65.8  126.7  0.095  0.124  0.000  0.000 -99.00 -99.00
  
 Germinate  - End Gr Fil  136  26.6   7.3  17.1  11.95   88.1  370.0  0.098  0.153  0.036  0.036 -99.00 -99.00
--------------------------------------------------------------------------------------------------------------


*RESOURCE PRODUCTIVITY

 Growing season length: 136 days 

 Precipitation during growth season         88.1 mm[rain]
   Dry Matter Productivity                 19.69 kg[DM]/m3[rain]          =  196.9 kg[DM]/ha per mm[rain]
   Yield Productivity                       7.86 kg[grain yield]/m3[rain] =   78.6 kg[yield]/ha per mm[rain]

 Evapotranspiration during growth season   370.0 mm[ET]
   Dry Matter Productivity                  4.69 kg[DM]/m3[ET]            =   46.9 kg[DM]/ha per mm[ET]
   Yield Productivity                       1.87 kg[grain yield]/m3[ET]   =   18.7 kg[yield]/ha per mm[ET]

 Transpiration during growth season        298.4 mm[EP]
   Dry Matter Productivity                  5.81 kg[DM]/m3[EP]            =   58.1 kg[DM]/ha per mm[EP]
   Yield Productivity                       2.32 kg[grain yield]/m3[EP]   =   23.2 kg[yield]/ha per mm[EP]

 Irrigation during growing season          525.1 mm[irrig]
   Dry Matter Productivity                  3.30 kg[DM]/m3[irrig]         =   33.0 kg[DM]/ha per mm[irrig]
   Yield Productivity                       1.32 kg[grain yield]/m3[irrig]=   13.2 kg[yield]/ha per mm[irrig]

 N applied during growing season           323.0 kg[N applied]/ha
   Dry Matter Productivity                  53.7 kg[DM]/kg[N applied]
   Yield Productivity                       21.4 kg[yield]/kg[N applied]

 N uptake during growing season            215.4 kg[N uptake]/ha
   Dry Matter Productivity                  80.5 kg[DM]/kg[N uptake]
   Yield Productivity                       32.2 kg[yield]/kg[N uptake]

--------------------------------------------------------------------------------------------------------------

          WHEAT YIELD :     6926 kg/ha    [Dry weight] 

**************************************************************************************************************
  

*DSSAT Cropping System Model Ver. 4.8.2.000 -release  AUG 18, 2025 20:50:01

*RUN   3        : WW23_G-3                  CSCER048 CIOB2301    3
 MODEL          : CSCER048 - Wheat
 EXPERIMENT     : CIOB2301 WH ROOTS ANATOMY
 DATA PATH      : C:\DSSAT48\Wheat\
 TREATMENT  3   : WW23_G-3                  CSCER048


 CROP           : Wheat            CULTIVAR : ENTRY 3          ECOTYPE :CI0701
 STARTING DATE  : SEP  1 2022
 PLANTING DATE  : NOV 23 2022      PLANTS/m2 :   137.0    ROW SPACING :  20.cm
 WEATHER        : CIOB   2022
 SOIL           : CCENEB2301     TEXTURE : C     -   CIMMYT CENEB 710
 SOIL INIT COND : DEPTH:120cm EXTR. H2O: 82.8mm  NO3:484.0kg/ha  NH4:341.8kg/ha
 WATER BALANCE  : IRRIGATE ON REPORTED DATE(S)
 IRRIGATION     :      525 mm IN     9 APPLICATIONS
 NITROGEN BAL.  : SOIL-N & N-UPTAKE SIMULATION; NO N-FIXATION
 N-FERTILIZER   :      323 kg/ha IN     3 APPLICATIONS
 RESIDUE/MANURE : INITIAL :     0 kg/ha ;    2222 kg/ha IN     1 APPLICATIONS
 ENVIRONM. OPT. : DAYL=    0.00  SRAD=    0.00  TMAX=    0.00  TMIN=    0.00
                  RAIN=    0.00  CO2 =    0.00  DEW =    0.00  WIND=    0.00
 SIMULATION OPT : WATER   :Y  NITROGEN:Y  N-FIX:N  PHOSPH :N  PESTS  :N
                  PHOTO   :C  ET      :R  INFIL:S  HYDROL :R  SOM    :G
                  CO2 418ppm  NSWIT   :1  EVAP :R  SOIL   :2  STEMP  :D
 MANAGEMENT OPT : PLANTING:R  IRRIG   :R  FERT :R  RESIDUE:R  HARVEST:M
                  WEATHER :M  TILLAGE :Y

*SUMMARY OF SOIL AND GENETIC INPUT PARAMETERS

   SOIL LOWER UPPER   SAT  EXTR  INIT   ROOT   BULK     pH    NO3    NH4    ORG
  DEPTH LIMIT LIMIT    SW    SW    SW   DIST   DENS                          C
   cm   cm3/cm3    cm3/cm3    cm3/cm3         g/cm3         ugN/g  ugN/g     %
-------------------------------------------------------------------------------
  0-  5 0.143 0.204 0.268 0.061 0.172   1.00   1.35   8.50  29.00  29.00   1.08
  5- 15 0.143 0.204 0.268 0.061 0.172   1.00   1.35   8.50  29.00  29.00   1.08
 15- 30 0.143 0.204 0.268 0.061 0.172   1.00   1.35   8.50  29.00  29.00   1.08
 30- 45 0.166 0.234 0.274 0.068 0.225   0.41   1.58   8.50  27.00  16.00   0.80
 45- 60 0.166 0.234 0.274 0.068 0.225   0.41   1.58   8.50  27.00  16.00   0.80
 60- 90 0.155 0.227 0.276 0.072 0.207   0.22   1.50   7.90  53.00  33.00   0.87
 90-120 0.188 0.263 0.308 0.075 0.263   0.12   1.38   8.00   0.01   0.01   0.40

TOT-120  19.6  27.8  33.8   8.3  26.0  <--cm   -  kg/ha-->  484.0  341.8 137370
SOIL ALBEDO    : 0.13      EVAPORATION LIMIT : 6.00         MIN. FACTOR  : 1.00
RUNOFF CURVE # :61.00      DRAINAGE RATE     : 0.60         FERT. FACTOR : 1.00

 Wheat            CULTIVAR: 518062-ENTRY 3            ECOTYPE: CI0701
   P1V   P1D    P5    G1    G2    G3 PHINT
   2.0  38.8 576.7  22.9  48.7  0.50 120.2


*SIMULATED CROP AND SOIL STATUS AT MAIN DEVELOPMENT STAGES
  
 RUN NO.      3   ROOTS ANATOMY                                               

 ...... DATE ......  GROWTH STAGE BIOMASS   LEAF       CROP N      STRESS
 YEARDOY DOM MON DAP ............. kg/ha AREA NUMBER  kg/ha   %   H2O    N
 2022327  23 Nov   0 7 Sowing         0  0.00   0.0     0   0.0  0.00  0.00
 2022328  24 Nov   1 8 Germinate      0  0.00   0.0     0   0.0  0.00  0.00
 2022330  26 Nov   3 9 Emergence      0  0.00   0.0     0   0.0  0.00  0.00
 2023022  22 Jan  60 1 Term Spklt  1449  2.52   9.0    67   4.7  0.31  0.11
 2023041  10 Feb  79 2 End Veg     3747  5.60  11.5   122   3.3  0.07  0.00
 2023054  23 Feb  92 3 End Ear Gr  5884  5.03  11.5   119   2.0  0.00  0.00
 2023070  11 Mar 108 4 Beg Gr Fil  9160  4.25  11.5   118   1.3  0.12  0.00
 2023100  10 Apr 138 5 End Gr Fil 16634  1.17  11.5   192   1.2  0.08  0.00
 2023100  10 Apr 138 6 Harvest    16634  1.17  11.5   192   1.2  0.53  0.00
  

*MAIN GROWTH AND DEVELOPMENT VARIABLES

@     VARIABLE                             SIMULATED     MEASURED
      --------                             ---------     --------
      Emergence (DAP)                            3            7
      Anthesis (DAP)                            95           95
      Maturity (DAP)                           138          138
      Product wt (kg dm/ha;no loss)           7265         7260
      Product unit weight (g dm)             0.049        0.049
      Product number (no/m2)                 14917        14914
      Product number (no/group)               11.3        -99.0
      Product harvest index (ratio)           0.44         0.43
      Maximum leaf area index                  5.6          5.6
      Final leaf number (one axis)            11.5        -99.0
      Final shoot number (#/m2)               1317          -99
      Canopy (tops) wt (kg dm/ha)            16634        16824
      Vegetative wt (kg dm/ha)                9370         9564
      Root wt (kg dm/ha)                       912          -99
      Assimilate wt (kg dm/ha)               18426          -99
      Senesced wt (kg dm/ha)                   276          -99
      Reserves wt (kg dm/ha)                  4326          -99
      N uptake (kg/ha)                       210.3        -99.0
      N senesced (kg/ha)                       3.8        -99.0
      Above-ground N (kg/ha)                 192.0        -99.0
      Root N (kg/ha)                          15.3        -99.0
      Vegetative N (kg/ha)                    37.4        -99.0
      Product N (kg/ha)                      154.6        139.3
      Product N harvest index (ratio)         0.81       -99.00
      Product N (%)                            2.1          1.9
      Vegetative N (%)                         0.4        -99.0
      Leaf+stem wt,anthesis (kg dm/ha)        6437          -99
      Leaf+stem N,anthesis (kg/ha)           118.7        -99.0
      Leaf N,anthesis (%)                      3.0        -99.0

*ENVIRONMENTAL AND STRESS FACTORS

 |-----Development Phase------|-------------Environment--------------|----------------Stress-----------------|
                              |--------Average-------|---Cumulative--|         (0=Min, 1=Max Stress)         |
                         Time  Temp  Temp Solar Photop         Evapo |----Water---|--Nitrogen--|--Phosphorus-|
                         Span   Max   Min   Rad  [day]   Rain  Trans  Photo         Photo         Photo
                         days    °C    °C MJ/m2     hr     mm     mm  synth Growth ' synth Growth  synth Growth
--------------------------------------------------------------------------------------------------------------
 Germinate  - Term Spklt   57  26.5   7.4  14.1  11.34   10.0   79.9  0.309  0.414  0.112  0.112 -99.00 -99.00
 Term Spklt - End Veg      19  25.5   5.2  16.4  11.68    0.1   57.2  0.068  0.120  0.000  0.000 -99.00 -99.00
 End Veg    - End Ear Gr   13  22.8   8.0  14.5  12.01   12.1   36.3  0.004  0.038  0.000  0.000 -99.00 -99.00
 End Ear Gr - Beg Gr Fil   16  26.3   6.3  19.1  12.37    0.1   54.0  0.117  0.168  0.000  0.000 -99.00 -99.00
 Beg Gr Fil - End Gr Fil   30  29.2   8.8  23.0  13.00   65.8  128.2  0.080  0.118  0.000  0.000 -99.00 -99.00
  
 Germinate  - End Gr Fil  135  26.6   7.3  17.1  11.94   88.1  355.6  0.172  0.242  0.047  0.047 -99.00 -99.00
--------------------------------------------------------------------------------------------------------------


*RESOURCE PRODUCTIVITY

 Growing season length: 135 days 

 Precipitation during growth season         88.1 mm[rain]
   Dry Matter Productivity                 18.88 kg[DM]/m3[rain]          =  188.8 kg[DM]/ha per mm[rain]
   Yield Productivity                       8.25 kg[grain yield]/m3[rain] =   82.5 kg[yield]/ha per mm[rain]

 Evapotranspiration during growth season   355.6 mm[ET]
   Dry Matter Productivity                  4.68 kg[DM]/m3[ET]            =   46.8 kg[DM]/ha per mm[ET]
   Yield Productivity                       2.04 kg[grain yield]/m3[ET]   =   20.4 kg[yield]/ha per mm[ET]

 Transpiration during growth season        289.9 mm[EP]
   Dry Matter Productivity                  5.74 kg[DM]/m3[EP]            =   57.4 kg[DM]/ha per mm[EP]
   Yield Productivity                       2.51 kg[grain yield]/m3[EP]   =   25.1 kg[yield]/ha per mm[EP]

 Irrigation during growing season          525.1 mm[irrig]
   Dry Matter Productivity                  3.17 kg[DM]/m3[irrig]         =   31.7 kg[DM]/ha per mm[irrig]
   Yield Productivity                       1.38 kg[grain yield]/m3[irrig]=   13.8 kg[yield]/ha per mm[irrig]

 N applied during growing season           323.0 kg[N applied]/ha
   Dry Matter Productivity                  51.5 kg[DM]/kg[N applied]
   Yield Productivity                       22.5 kg[yield]/kg[N applied]

 N uptake during growing season            210.3 kg[N uptake]/ha
   Dry Matter Productivity                  79.1 kg[DM]/kg[N uptake]
   Yield Productivity                       34.5 kg[yield]/kg[N uptake]

--------------------------------------------------------------------------------------------------------------

          WHEAT YIELD :     7265 kg/ha    [Dry weight] 

**************************************************************************************************************
  

*DSSAT Cropping System Model Ver. 4.8.2.000 -release  AUG 18, 2025 20:50:01

*RUN   4        : WW23_G-4                  CSCER048 CIOB2301    4
 MODEL          : CSCER048 - Wheat
 EXPERIMENT     : CIOB2301 WH ROOTS ANATOMY
 DATA PATH      : C:\DSSAT48\Wheat\
 TREATMENT  4   : WW23_G-4                  CSCER048


 CROP           : Wheat            CULTIVAR : ENTRY 4          ECOTYPE :CI0701
 STARTING DATE  : SEP  1 2022
 PLANTING DATE  : NOV 23 2022      PLANTS/m2 :   137.0    ROW SPACING :  20.cm
 WEATHER        : CIOB   2022
 SOIL           : CCENEB2301     TEXTURE : C     -   CIMMYT CENEB 710
 SOIL INIT COND : DEPTH:120cm EXTR. H2O: 82.8mm  NO3:484.0kg/ha  NH4:341.8kg/ha
 WATER BALANCE  : IRRIGATE ON REPORTED DATE(S)
 IRRIGATION     :      525 mm IN     9 APPLICATIONS
 NITROGEN BAL.  : SOIL-N & N-UPTAKE SIMULATION; NO N-FIXATION
 N-FERTILIZER   :      323 kg/ha IN     3 APPLICATIONS
 RESIDUE/MANURE : INITIAL :     0 kg/ha ;    2222 kg/ha IN     1 APPLICATIONS
 ENVIRONM. OPT. : DAYL=    0.00  SRAD=    0.00  TMAX=    0.00  TMIN=    0.00
                  RAIN=    0.00  CO2 =    0.00  DEW =    0.00  WIND=    0.00
 SIMULATION OPT : WATER   :Y  NITROGEN:Y  N-FIX:N  PHOSPH :N  PESTS  :N
                  PHOTO   :C  ET      :R  INFIL:S  HYDROL :R  SOM    :G
                  CO2 418ppm  NSWIT   :1  EVAP :R  SOIL   :2  STEMP  :D
 MANAGEMENT OPT : PLANTING:R  IRRIG   :R  FERT :R  RESIDUE:R  HARVEST:M
                  WEATHER :M  TILLAGE :Y

*SUMMARY OF SOIL AND GENETIC INPUT PARAMETERS

   SOIL LOWER UPPER   SAT  EXTR  INIT   ROOT   BULK     pH    NO3    NH4    ORG
  DEPTH LIMIT LIMIT    SW    SW    SW   DIST   DENS                          C
   cm   cm3/cm3    cm3/cm3    cm3/cm3         g/cm3         ugN/g  ugN/g     %
-------------------------------------------------------------------------------
  0-  5 0.143 0.204 0.268 0.061 0.172   1.00   1.35   8.50  29.00  29.00   1.08
  5- 15 0.143 0.204 0.268 0.061 0.172   1.00   1.35   8.50  29.00  29.00   1.08
 15- 30 0.143 0.204 0.268 0.061 0.172   1.00   1.35   8.50  29.00  29.00   1.08
 30- 45 0.166 0.234 0.274 0.068 0.225   0.41   1.58   8.50  27.00  16.00   0.80
 45- 60 0.166 0.234 0.274 0.068 0.225   0.41   1.58   8.50  27.00  16.00   0.80
 60- 90 0.155 0.227 0.276 0.072 0.207   0.22   1.50   7.90  53.00  33.00   0.87
 90-120 0.188 0.263 0.308 0.075 0.263   0.12   1.38   8.00   0.01   0.01   0.40

TOT-120  19.6  27.8  33.8   8.3  26.0  <--cm   -  kg/ha-->  484.0  341.8 137370
SOIL ALBEDO    : 0.13      EVAPORATION LIMIT : 6.00         MIN. FACTOR  : 1.00
RUNOFF CURVE # :61.00      DRAINAGE RATE     : 0.60         FERT. FACTOR : 1.00

 Wheat            CULTIVAR: 617502-ENTRY 4            ECOTYPE: CI0701
   P1V   P1D    P5    G1    G2    G3 PHINT
   2.0  44.1 587.3  22.2  49.3  5.27 102.6


*SIMULATED CROP AND SOIL STATUS AT MAIN DEVELOPMENT STAGES
  
 RUN NO.      4   ROOTS ANATOMY                                               

 ...... DATE ......  GROWTH STAGE BIOMASS   LEAF       CROP N      STRESS
 YEARDOY DOM MON DAP ............. kg/ha AREA NUMBER  kg/ha   %   H2O    N
 2022327  23 Nov   0 7 Sowing         0  0.00   0.0     0   0.0  0.00  0.00
 2022328  24 Nov   1 8 Germinate      0  0.00   0.0     0   0.0  0.00  0.00
 2022330  26 Nov   3 9 Emergence      0  0.00   0.0     0   0.0  0.00  0.00
 2023025  25 Jan  63 1 Term Spklt  1721  2.89  10.8    80   4.7  0.29  0.11
 2023044  13 Feb  82 2 End Veg     3914  5.54  13.7   127   3.3  0.06  0.00
 2023057  26 Feb  95 3 End Ear Gr  6193  4.67  13.7   124   2.0  0.00  0.00
 2023072  13 Mar 110 4 Beg Gr Fil  9444  3.67  13.7   123   1.3  0.11  0.00
 2023103  13 Apr 141 5 End Gr Fil 16572  0.67  13.7   192   1.2  0.11  0.00
 2023103  13 Apr 141 6 Harvest    16572  0.67  13.7   192   1.2  0.38  0.00
  

*MAIN GROWTH AND DEVELOPMENT VARIABLES

@     VARIABLE                             SIMULATED     MEASURED
      --------                             ---------     --------
      Emergence (DAP)                            3            7
      Anthesis (DAP)                            97           97
      Maturity (DAP)                           141          141
      Product wt (kg dm/ha;no loss)           7166         7183
      Product unit weight (g dm)             0.049        0.049
      Product number (no/m2)                 14535        14585
      Product number (no/group)               28.7        -99.0
      Product harvest index (ratio)           0.43         0.46
      Maximum leaf area index                  5.5          5.5
      Final leaf number (one axis)            13.7        -99.0
      Final shoot number (#/m2)                506          -99
      Canopy (tops) wt (kg dm/ha)            16572        15767
      Vegetative wt (kg dm/ha)                9406         8584
      Root wt (kg dm/ha)                       947          -99
      Assimilate wt (kg dm/ha)               18465          -99
      Senesced wt (kg dm/ha)                   316          -99
      Reserves wt (kg dm/ha)                  4393          -99
      N uptake (kg/ha)                       211.7        -99.0
      N senesced (kg/ha)                       4.3        -99.0
      Above-ground N (kg/ha)                 192.2        -99.0
      Root N (kg/ha)                          15.9        -99.0
      Vegetative N (kg/ha)                    36.7        -99.0
      Product N (kg/ha)                      155.5        153.2
      Product N harvest index (ratio)         0.81       -99.00
      Product N (%)                            2.2          2.1
      Vegetative N (%)                         0.4        -99.0
      Leaf+stem wt,anthesis (kg dm/ha)        6654          -99
      Leaf+stem N,anthesis (kg/ha)           124.0        -99.0
      Leaf N,anthesis (%)                      3.1        -99.0

*ENVIRONMENTAL AND STRESS FACTORS

 |-----Development Phase------|-------------Environment--------------|----------------Stress-----------------|
                              |--------Average-------|---Cumulative--|         (0=Min, 1=Max Stress)         |
                         Time  Temp  Temp Solar Photop         Evapo |----Water---|--Nitrogen--|--Phosphorus-|
                         Span   Max   Min   Rad  [day]   Rain  Trans  Photo         Photo         Photo
                         days    °C    °C MJ/m2     hr     mm     mm  synth Growth ' synth Growth  synth Growth
--------------------------------------------------------------------------------------------------------------
 Germinate  - Term Spklt   60  26.3   7.2  14.3  11.35   10.0   88.6  0.287  0.387  0.113  0.113 -99.00 -99.00
 Term Spklt - End Veg      19  25.4   5.6  15.5  11.74    0.1   54.3  0.063  0.114  0.000  0.000 -99.00 -99.00
 End Veg    - End Ear Gr   13  23.1   8.1  15.5  12.08   12.1   38.9  0.005  0.039  0.000  0.000 -99.00 -99.00
 End Ear Gr - Beg Gr Fil   15  27.8   6.9  20.2  12.43    0.1   55.9  0.112  0.165  0.000  0.000 -99.00 -99.00
 Beg Gr Fil - End Gr Fil   31  29.1   8.8  23.2  13.07   65.8  122.9  0.108  0.150  0.000  0.000 -99.00 -99.00
  
 Germinate  - End Gr Fil  138  26.7   7.4  17.2  11.97   88.1  360.7  0.171  0.239  0.049  0.049 -99.00 -99.00
--------------------------------------------------------------------------------------------------------------


*RESOURCE PRODUCTIVITY

 Growing season length: 138 days 

 Precipitation during growth season         88.1 mm[rain]
   Dry Matter Productivity                 18.81 kg[DM]/m3[rain]          =  188.1 kg[DM]/ha per mm[rain]
   Yield Productivity                       8.13 kg[grain yield]/m3[rain] =   81.3 kg[yield]/ha per mm[rain]

 Evapotranspiration during growth season   360.7 mm[ET]
   Dry Matter Productivity                  4.59 kg[DM]/m3[ET]            =   45.9 kg[DM]/ha per mm[ET]
   Yield Productivity                       1.99 kg[grain yield]/m3[ET]   =   19.9 kg[yield]/ha per mm[ET]

 Transpiration during growth season        289.8 mm[EP]
   Dry Matter Productivity                  5.72 kg[DM]/m3[EP]            =   57.2 kg[DM]/ha per mm[EP]
   Yield Productivity                       2.47 kg[grain yield]/m3[EP]   =   24.7 kg[yield]/ha per mm[EP]

 Irrigation during growing season          525.1 mm[irrig]
   Dry Matter Productivity                  3.16 kg[DM]/m3[irrig]         =   31.6 kg[DM]/ha per mm[irrig]
   Yield Productivity                       1.36 kg[grain yield]/m3[irrig]=   13.6 kg[yield]/ha per mm[irrig]

 N applied during growing season           323.0 kg[N applied]/ha
   Dry Matter Productivity                  51.3 kg[DM]/kg[N applied]
   Yield Productivity                       22.2 kg[yield]/kg[N applied]

 N uptake during growing season            211.7 kg[N uptake]/ha
   Dry Matter Productivity                  78.3 kg[DM]/kg[N uptake]
   Yield Productivity                       33.9 kg[yield]/kg[N uptake]

--------------------------------------------------------------------------------------------------------------

          WHEAT YIELD :     7166 kg/ha    [Dry weight] 

**************************************************************************************************************
  

*DSSAT Cropping System Model Ver. 4.8.2.000 -release  AUG 18, 2025 20:50:01

*RUN   5        : WW23_G-5                  CSCER048 CIOB2301    5
 MODEL          : CSCER048 - Wheat
 EXPERIMENT     : CIOB2301 WH ROOTS ANATOMY
 DATA PATH      : C:\DSSAT48\Wheat\
 TREATMENT  5   : WW23_G-5                  CSCER048


 CROP           : Wheat            CULTIVAR : ENTRY 5          ECOTYPE :CI0700
 STARTING DATE  : SEP  1 2022
 PLANTING DATE  : NOV 23 2022      PLANTS/m2 :   137.0    ROW SPACING :  20.cm
 WEATHER        : CIOB   2022
 SOIL           : CCENEB2301     TEXTURE : C     -   CIMMYT CENEB 710
 SOIL INIT COND : DEPTH:120cm EXTR. H2O: 82.8mm  NO3:484.0kg/ha  NH4:341.8kg/ha
 WATER BALANCE  : IRRIGATE ON REPORTED DATE(S)
 IRRIGATION     :      525 mm IN     9 APPLICATIONS
 NITROGEN BAL.  : SOIL-N & N-UPTAKE SIMULATION; NO N-FIXATION
 N-FERTILIZER   :      323 kg/ha IN     3 APPLICATIONS
 RESIDUE/MANURE : INITIAL :     0 kg/ha ;    2222 kg/ha IN     1 APPLICATIONS
 ENVIRONM. OPT. : DAYL=    0.00  SRAD=    0.00  TMAX=    0.00  TMIN=    0.00
                  RAIN=    0.00  CO2 =    0.00  DEW =    0.00  WIND=    0.00
 SIMULATION OPT : WATER   :Y  NITROGEN:Y  N-FIX:N  PHOSPH :N  PESTS  :N
                  PHOTO   :C  ET      :R  INFIL:S  HYDROL :R  SOM    :G
                  CO2 418ppm  NSWIT   :1  EVAP :R  SOIL   :2  STEMP  :D
 MANAGEMENT OPT : PLANTING:R  IRRIG   :R  FERT :R  RESIDUE:R  HARVEST:M
                  WEATHER :M  TILLAGE :Y

*SUMMARY OF SOIL AND GENETIC INPUT PARAMETERS

   SOIL LOWER UPPER   SAT  EXTR  INIT   ROOT   BULK     pH    NO3    NH4    ORG
  DEPTH LIMIT LIMIT    SW    SW    SW   DIST   DENS                          C
   cm   cm3/cm3    cm3/cm3    cm3/cm3         g/cm3         ugN/g  ugN/g     %
-------------------------------------------------------------------------------
  0-  5 0.143 0.204 0.268 0.061 0.172   1.00   1.35   8.50  29.00  29.00   1.08
  5- 15 0.143 0.204 0.268 0.061 0.172   1.00   1.35   8.50  29.00  29.00   1.08
 15- 30 0.143 0.204 0.268 0.061 0.172   1.00   1.35   8.50  29.00  29.00   1.08
 30- 45 0.166 0.234 0.274 0.068 0.225   0.41   1.58   8.50  27.00  16.00   0.80
 45- 60 0.166 0.234 0.274 0.068 0.225   0.41   1.58   8.50  27.00  16.00   0.80
 60- 90 0.155 0.227 0.276 0.072 0.207   0.22   1.50   7.90  53.00  33.00   0.87
 90-120 0.188 0.263 0.308 0.075 0.263   0.12   1.38   8.00   0.01   0.01   0.40

TOT-120  19.6  27.8  33.8   8.3  26.0  <--cm   -  kg/ha-->  484.0  341.8 137370
SOIL ALBEDO    : 0.13      EVAPORATION LIMIT : 6.00         MIN. FACTOR  : 1.00
RUNOFF CURVE # :61.00      DRAINAGE RATE     : 0.60         FERT. FACTOR : 1.00

 Wheat            CULTIVAR: 617636-ENTRY 5            ECOTYPE: CI0700
   P1V   P1D    P5    G1    G2    G3 PHINT
   2.0  34.7 623.0  18.6  55.3  3.52  97.6


*SIMULATED CROP AND SOIL STATUS AT MAIN DEVELOPMENT STAGES
  
 RUN NO.      5   ROOTS ANATOMY                                               

 ...... DATE ......  GROWTH STAGE BIOMASS   LEAF       CROP N      STRESS
 YEARDOY DOM MON DAP ............. kg/ha AREA NUMBER  kg/ha   %   H2O    N
 2022327  23 Nov   0 7 Sowing         0  0.00   0.0     0   0.0  0.00  0.00
 2022328  24 Nov   1 8 Germinate      0  0.00   0.0     0   0.0  0.00  0.00
 2022330  26 Nov   3 9 Emergence      0  0.00   0.0     0   0.0  0.00  0.00
 2023028  28 Jan  66 1 Term Spklt  1817  2.95  11.8    85   4.7  0.25  0.07
 2023046  15 Feb  84 2 End Veg     3614  5.27  14.6   122   3.4  0.04  0.00
 2023059  28 Feb  97 3 End Ear Gr  6610  4.72  14.6   117   1.8  0.00  0.00
 2023074  15 Mar 112 4 Beg Gr Fil 10979  3.81  14.6   116   1.1  0.09  0.00
 2023106  16 Apr 144 5 End Gr Fil 19764  1.24  14.6   176   0.9  0.23  0.00
 2023106  16 Apr 144 6 Harvest    19764  1.24  14.6   176   0.9  0.77  0.00
  

*MAIN GROWTH AND DEVELOPMENT VARIABLES

@     VARIABLE                             SIMULATED     MEASURED
      --------                             ---------     --------
      Emergence (DAP)                            3            7
      Anthesis (DAP)                           101          100
      Maturity (DAP)                           144          144
      Product wt (kg dm/ha;no loss)           6941         7020
      Product unit weight (g dm)             0.049        0.049
      Product number (no/m2)                 14270        14222
      Product number (no/group)               15.7        -99.0
      Product harvest index (ratio)           0.35         0.34
      Maximum leaf area index                  5.3          5.3
      Final leaf number (one axis)            14.6        -99.0
      Final shoot number (#/m2)                908          -99
      Canopy (tops) wt (kg dm/ha)            19764        20705
      Vegetative wt (kg dm/ha)               12823        13685
      Root wt (kg dm/ha)                      1026          -99
      Assimilate wt (kg dm/ha)               21828          -99
      Senesced wt (kg dm/ha)                   352          -99
      Reserves wt (kg dm/ha)                  6964          -99
      N uptake (kg/ha)                       197.1        -99.0
      N senesced (kg/ha)                       4.9        -99.0
      Above-ground N (kg/ha)                 175.8        -99.0
      Root N (kg/ha)                          17.3        -99.0
      Vegetative N (kg/ha)                    42.4        -99.0
      Product N (kg/ha)                      133.4        148.5
      Product N harvest index (ratio)         0.76       -99.00
      Product N (%)                            1.9          2.1
      Vegetative N (%)                         0.3        -99.0
      Leaf+stem wt,anthesis (kg dm/ha)        7642          -99
      Leaf+stem N,anthesis (kg/ha)           116.5        -99.0
      Leaf N,anthesis (%)                      3.0        -99.0

*ENVIRONMENTAL AND STRESS FACTORS

 |-----Development Phase------|-------------Environment--------------|----------------Stress-----------------|
                              |--------Average-------|---Cumulative--|         (0=Min, 1=Max Stress)         |
                         Time  Temp  Temp Solar Photop         Evapo |----Water---|--Nitrogen--|--Phosphorus-|
                         Span   Max   Min   Rad  [day]   Rain  Trans  Photo         Photo         Photo
                         days    °C    °C MJ/m2     hr     mm     mm  synth Growth ' synth Growth  synth Growth
--------------------------------------------------------------------------------------------------------------
 Germinate  - Term Spklt   63  26.2   7.1  14.3  11.36   10.0  102.3  0.255  0.352  0.068  0.068 -99.00 -99.00
 Term Spklt - End Veg      18  25.3   5.7  15.8  11.78    3.6   53.9  0.036  0.087  0.000  0.000 -99.00 -99.00
 End Veg    - End Ear Gr   13  23.7   8.2  15.9  12.13    8.6   40.6  0.000  0.000  0.000  0.000 -99.00 -99.00
 End Ear Gr - Beg Gr Fil   15  28.3   7.3  20.5  12.49    0.1   58.5  0.092  0.144  0.000  0.000 -99.00 -99.00
 Beg Gr Fil - End Gr Fil   32  29.1   9.0  23.5  13.14   65.8  118.8  0.231  0.270  0.000  0.000 -99.00 -99.00
  
 Germinate  - End Gr Fil  141  26.7   7.5  17.4  12.01   88.1  374.0  0.181  0.245  0.030  0.030 -99.00 -99.00
--------------------------------------------------------------------------------------------------------------


*RESOURCE PRODUCTIVITY

 Growing season length: 141 days 

 Precipitation during growth season         88.1 mm[rain]
   Dry Matter Productivity                 22.43 kg[DM]/m3[rain]          =  224.3 kg[DM]/ha per mm[rain]
   Yield Productivity                       7.88 kg[grain yield]/m3[rain] =   78.8 kg[yield]/ha per mm[rain]

 Evapotranspiration during growth season   374.0 mm[ET]
   Dry Matter Productivity                  5.28 kg[DM]/m3[ET]            =   52.8 kg[DM]/ha per mm[ET]
   Yield Productivity                       1.86 kg[grain yield]/m3[ET]   =   18.6 kg[yield]/ha per mm[ET]

 Transpiration during growth season        313.4 mm[EP]
   Dry Matter Productivity                  6.31 kg[DM]/m3[EP]            =   63.1 kg[DM]/ha per mm[EP]
   Yield Productivity                       2.22 kg[grain yield]/m3[EP]   =   22.2 kg[yield]/ha per mm[EP]

 Irrigation during growing season          525.1 mm[irrig]
   Dry Matter Productivity                  3.76 kg[DM]/m3[irrig]         =   37.6 kg[DM]/ha per mm[irrig]
   Yield Productivity                       1.32 kg[grain yield]/m3[irrig]=   13.2 kg[yield]/ha per mm[irrig]

 N applied during growing season           323.0 kg[N applied]/ha
   Dry Matter Productivity                  61.2 kg[DM]/kg[N applied]
   Yield Productivity                       21.5 kg[yield]/kg[N applied]

 N uptake during growing season            197.1 kg[N uptake]/ha
   Dry Matter Productivity                 100.3 kg[DM]/kg[N uptake]
   Yield Productivity                       35.2 kg[yield]/kg[N uptake]

--------------------------------------------------------------------------------------------------------------

          WHEAT YIELD :     6941 kg/ha    [Dry weight] 

**************************************************************************************************************
  

*DSSAT Cropping System Model Ver. 4.8.2.000 -release  AUG 18, 2025 20:50:01

*RUN   6        : WW23_G-6                  CSCER048 CIOB2301    6
 MODEL          : CSCER048 - Wheat
 EXPERIMENT     : CIOB2301 WH ROOTS ANATOMY
 DATA PATH      : C:\DSSAT48\Wheat\
 TREATMENT  6   : WW23_G-6                  CSCER048


 CROP           : Wheat            CULTIVAR : ENTRY 6          ECOTYPE :CI0700
 STARTING DATE  : SEP  1 2022
 PLANTING DATE  : NOV 23 2022      PLANTS/m2 :   137.0    ROW SPACING :  20.cm
 WEATHER        : CIOB   2022
 SOIL           : CCENEB2301     TEXTURE : C     -   CIMMYT CENEB 710
 SOIL INIT COND : DEPTH:120cm EXTR. H2O: 82.8mm  NO3:484.0kg/ha  NH4:341.8kg/ha
 WATER BALANCE  : IRRIGATE ON REPORTED DATE(S)
 IRRIGATION     :      525 mm IN     9 APPLICATIONS
 NITROGEN BAL.  : SOIL-N & N-UPTAKE SIMULATION; NO N-FIXATION
 N-FERTILIZER   :      323 kg/ha IN     3 APPLICATIONS
 RESIDUE/MANURE : INITIAL :     0 kg/ha ;    2222 kg/ha IN     1 APPLICATIONS
 ENVIRONM. OPT. : DAYL=    0.00  SRAD=    0.00  TMAX=    0.00  TMIN=    0.00
                  RAIN=    0.00  CO2 =    0.00  DEW =    0.00  WIND=    0.00
 SIMULATION OPT : WATER   :Y  NITROGEN:Y  N-FIX:N  PHOSPH :N  PESTS  :N
                  PHOTO   :C  ET      :R  INFIL:S  HYDROL :R  SOM    :G
                  CO2 418ppm  NSWIT   :1  EVAP :R  SOIL   :2  STEMP  :D
 MANAGEMENT OPT : PLANTING:R  IRRIG   :R  FERT :R  RESIDUE:R  HARVEST:M
                  WEATHER :M  TILLAGE :Y

*SUMMARY OF SOIL AND GENETIC INPUT PARAMETERS

   SOIL LOWER UPPER   SAT  EXTR  INIT   ROOT   BULK     pH    NO3    NH4    ORG
  DEPTH LIMIT LIMIT    SW    SW    SW   DIST   DENS                          C
   cm   cm3/cm3    cm3/cm3    cm3/cm3         g/cm3         ugN/g  ugN/g     %
-------------------------------------------------------------------------------
  0-  5 0.143 0.204 0.268 0.061 0.172   1.00   1.35   8.50  29.00  29.00   1.08
  5- 15 0.143 0.204 0.268 0.061 0.172   1.00   1.35   8.50  29.00  29.00   1.08
 15- 30 0.143 0.204 0.268 0.061 0.172   1.00   1.35   8.50  29.00  29.00   1.08
 30- 45 0.166 0.234 0.274 0.068 0.225   0.41   1.58   8.50  27.00  16.00   0.80
 45- 60 0.166 0.234 0.274 0.068 0.225   0.41   1.58   8.50  27.00  16.00   0.80
 60- 90 0.155 0.227 0.276 0.072 0.207   0.22   1.50   7.90  53.00  33.00   0.87
 90-120 0.188 0.263 0.308 0.075 0.263   0.12   1.38   8.00   0.01   0.01   0.40

TOT-120  19.6  27.8  33.8   8.3  26.0  <--cm   -  kg/ha-->  484.0  341.8 137370
SOIL ALBEDO    : 0.13      EVAPORATION LIMIT : 6.00         MIN. FACTOR  : 1.00
RUNOFF CURVE # :61.00      DRAINAGE RATE     : 0.60         FERT. FACTOR : 1.00

 Wheat            CULTIVAR: 474812-ENTRY 6            ECOTYPE: CI0700
   P1V   P1D    P5    G1    G2    G3 PHINT
   2.0  40.2 568.6  21.7  48.1  5.04  98.7


*SIMULATED CROP AND SOIL STATUS AT MAIN DEVELOPMENT STAGES
  
 RUN NO.      6   ROOTS ANATOMY                                               

 ...... DATE ......  GROWTH STAGE BIOMASS   LEAF       CROP N      STRESS
 YEARDOY DOM MON DAP ............. kg/ha AREA NUMBER  kg/ha   %   H2O    N
 2022327  23 Nov   0 7 Sowing         0  0.00   0.0     0   0.0  0.00  0.00
 2022328  24 Nov   1 8 Germinate      0  0.00   0.0     0   0.0  0.00  0.00
 2022330  26 Nov   3 9 Emergence      0  0.00   0.0     0   0.0  0.00  0.00
 2023030  30 Jan  68 1 Term Spklt  2018  3.29  11.9    95   4.7  0.25  0.07
 2023049  18 Feb  87 2 End Veg     3906  5.66  14.9   130   3.3  0.03  0.00
 2023061   2 Mar  99 3 End Ear Gr  6670  5.12  14.9   126   1.9  0.00  0.00
 2023075  16 Mar 113 4 Beg Gr Fil 10911  4.13  14.9   124   1.1  0.10  0.00
 2023105  15 Apr 143 5 End Gr Fil 19388  1.23  14.9   178   0.9  0.22  0.00
 2023105  15 Apr 143 6 Harvest    19388  1.23  14.9   178   0.9  0.74  0.00
  

*MAIN GROWTH AND DEVELOPMENT VARIABLES

@     VARIABLE                             SIMULATED     MEASURED
      --------                             ---------     --------
      Emergence (DAP)                            3            7
      Anthesis (DAP)                           103          100
      Maturity (DAP)                           143          143
      Product wt (kg dm/ha;no loss)           7013         6947
      Product unit weight (g dm)             0.043        0.042
      Product number (no/m2)                 16481        16489
      Product number (no/group)               19.7        -99.0
      Product harvest index (ratio)           0.36         0.39
      Maximum leaf area index                  5.7          5.7
      Final leaf number (one axis)            14.9        -99.0
      Final shoot number (#/m2)                835          -99
      Canopy (tops) wt (kg dm/ha)            19388        17928
      Vegetative wt (kg dm/ha)               12375        10981
      Root wt (kg dm/ha)                      1047          -99
      Assimilate wt (kg dm/ha)               21518          -99
      Senesced wt (kg dm/ha)                   385          -99
      Reserves wt (kg dm/ha)                  6569          -99
      N uptake (kg/ha)                       200.2        -99.0
      N senesced (kg/ha)                       5.3        -99.0
      Above-ground N (kg/ha)                 178.1        -99.0
      Root N (kg/ha)                          17.6        -99.0
      Vegetative N (kg/ha)                    43.3        -99.0
      Product N (kg/ha)                      134.8        133.9
      Product N harvest index (ratio)         0.76       -99.00
      Product N (%)                            1.9          1.9
      Vegetative N (%)                         0.4        -99.0
      Leaf+stem wt,anthesis (kg dm/ha)        7658          -99
      Leaf+stem N,anthesis (kg/ha)           124.7        -99.0
      Leaf N,anthesis (%)                      3.0        -99.0

*ENVIRONMENTAL AND STRESS FACTORS

 |-----Development Phase------|-------------Environment--------------|----------------Stress-----------------|
                              |--------Average-------|---Cumulative--|         (0=Min, 1=Max Stress)         |
                         Time  Temp  Temp Solar Photop         Evapo |----Water---|--Nitrogen--|--Phosphorus-|
                         Span   Max   Min   Rad  [day]   Rain  Trans  Photo         Photo         Photo
                         days    °C    °C MJ/m2     hr     mm     mm  synth Growth ' synth Growth  synth Growth
--------------------------------------------------------------------------------------------------------------
 Germinate  - Term Spklt   65  26.2   7.0  14.4  11.37   10.0  108.9  0.247  0.343  0.066  0.066 -99.00 -99.00
 Term Spklt - End Veg      19  25.0   6.0  15.5  11.84   11.8   56.2  0.031  0.069  0.000  0.000 -99.00 -99.00
 End Veg    - End Ear Gr   12  23.3   8.3  15.8  12.19    0.5   37.2  0.000  0.000  0.000  0.000 -99.00 -99.00
 End Ear Gr - Beg Gr Fil   14  29.5   7.7  21.3  12.53    0.0   57.2  0.098  0.156  0.000  0.000 -99.00 -99.00
 Beg Gr Fil - End Gr Fil   30  29.0   8.8  23.6  13.14   65.8  114.0  0.220  0.258  0.000  0.000 -99.00 -99.00
  
 Germinate  - End Gr Fil  140  26.7   7.5  17.3  12.00   88.1  373.4  0.176  0.239  0.031  0.031 -99.00 -99.00
--------------------------------------------------------------------------------------------------------------


*RESOURCE PRODUCTIVITY

 Growing season length: 140 days 

 Precipitation during growth season         88.1 mm[rain]
   Dry Matter Productivity                 22.01 kg[DM]/m3[rain]          =  220.1 kg[DM]/ha per mm[rain]
   Yield Productivity                       7.96 kg[grain yield]/m3[rain] =   79.6 kg[yield]/ha per mm[rain]

 Evapotranspiration during growth season   373.4 mm[ET]
   Dry Matter Productivity                  5.19 kg[DM]/m3[ET]            =   51.9 kg[DM]/ha per mm[ET]
   Yield Productivity                       1.88 kg[grain yield]/m3[ET]   =   18.8 kg[yield]/ha per mm[ET]

 Transpiration during growth season        314.9 mm[EP]
   Dry Matter Productivity                  6.16 kg[DM]/m3[EP]            =   61.6 kg[DM]/ha per mm[EP]
   Yield Productivity                       2.23 kg[grain yield]/m3[EP]   =   22.3 kg[yield]/ha per mm[EP]

 Irrigation during growing season          525.1 mm[irrig]
   Dry Matter Productivity                  3.69 kg[DM]/m3[irrig]         =   36.9 kg[DM]/ha per mm[irrig]
   Yield Productivity                       1.34 kg[grain yield]/m3[irrig]=   13.4 kg[yield]/ha per mm[irrig]

 N applied during growing season           323.0 kg[N applied]/ha
   Dry Matter Productivity                  60.0 kg[DM]/kg[N applied]
   Yield Productivity                       21.7 kg[yield]/kg[N applied]

 N uptake during growing season            200.2 kg[N uptake]/ha
   Dry Matter Productivity                  96.8 kg[DM]/kg[N uptake]
   Yield Productivity                       35.0 kg[yield]/kg[N uptake]

--------------------------------------------------------------------------------------------------------------

          WHEAT YIELD :     7013 kg/ha    [Dry weight] 

**************************************************************************************************************
  

*DSSAT Cropping System Model Ver. 4.8.2.000 -release  AUG 18, 2025 20:50:01

*RUN   7        : WW23_G-7                  CSCER048 CIOB2301    7
 MODEL          : CSCER048 - Wheat
 EXPERIMENT     : CIOB2301 WH ROOTS ANATOMY
 DATA PATH      : C:\DSSAT48\Wheat\
 TREATMENT  7   : WW23_G-7                  CSCER048


 CROP           : Wheat            CULTIVAR : ENTRY 7          ECOTYPE :CI0701
 STARTING DATE  : SEP  1 2022
 PLANTING DATE  : NOV 23 2022      PLANTS/m2 :   137.0    ROW SPACING :  20.cm
 WEATHER        : CIOB   2022
 SOIL           : CCENEB2301     TEXTURE : C     -   CIMMYT CENEB 710
 SOIL INIT COND : DEPTH:120cm EXTR. H2O: 82.8mm  NO3:484.0kg/ha  NH4:341.8kg/ha
 WATER BALANCE  : IRRIGATE ON REPORTED DATE(S)
 IRRIGATION     :      525 mm IN     9 APPLICATIONS
 NITROGEN BAL.  : SOIL-N & N-UPTAKE SIMULATION; NO N-FIXATION
 N-FERTILIZER   :      323 kg/ha IN     3 APPLICATIONS
 RESIDUE/MANURE : INITIAL :     0 kg/ha ;    2222 kg/ha IN     1 APPLICATIONS
 ENVIRONM. OPT. : DAYL=    0.00  SRAD=    0.00  TMAX=    0.00  TMIN=    0.00
                  RAIN=    0.00  CO2 =    0.00  DEW =    0.00  WIND=    0.00
 SIMULATION OPT : WATER   :Y  NITROGEN:Y  N-FIX:N  PHOSPH :N  PESTS  :N
                  PHOTO   :C  ET      :R  INFIL:S  HYDROL :R  SOM    :G
                  CO2 418ppm  NSWIT   :1  EVAP :R  SOIL   :2  STEMP  :D
 MANAGEMENT OPT : PLANTING:R  IRRIG   :R  FERT :R  RESIDUE:R  HARVEST:M
                  WEATHER :M  TILLAGE :Y

*SUMMARY OF SOIL AND GENETIC INPUT PARAMETERS

   SOIL LOWER UPPER   SAT  EXTR  INIT   ROOT   BULK     pH    NO3    NH4    ORG
  DEPTH LIMIT LIMIT    SW    SW    SW   DIST   DENS                          C
   cm   cm3/cm3    cm3/cm3    cm3/cm3         g/cm3         ugN/g  ugN/g     %
-------------------------------------------------------------------------------
  0-  5 0.143 0.204 0.268 0.061 0.172   1.00   1.35   8.50  29.00  29.00   1.08
  5- 15 0.143 0.204 0.268 0.061 0.172   1.00   1.35   8.50  29.00  29.00   1.08
 15- 30 0.143 0.204 0.268 0.061 0.172   1.00   1.35   8.50  29.00  29.00   1.08
 30- 45 0.166 0.234 0.274 0.068 0.225   0.41   1.58   8.50  27.00  16.00   0.80
 45- 60 0.166 0.234 0.274 0.068 0.225   0.41   1.58   8.50  27.00  16.00   0.80
 60- 90 0.155 0.227 0.276 0.072 0.207   0.22   1.50   7.90  53.00  33.00   0.87
 90-120 0.188 0.263 0.308 0.075 0.263   0.12   1.38   8.00   0.01   0.01   0.40

TOT-120  19.6  27.8  33.8   8.3  26.0  <--cm   -  kg/ha-->  484.0  341.8 137370
SOIL ALBEDO    : 0.13      EVAPORATION LIMIT : 6.00         MIN. FACTOR  : 1.00
RUNOFF CURVE # :61.00      DRAINAGE RATE     : 0.60         FERT. FACTOR : 1.00

 Wheat            CULTIVAR: 748117-ENTRY 7            ECOTYPE: CI0701
   P1V   P1D    P5    G1    G2    G3 PHINT
   2.0  52.3 567.2  22.0  41.5  4.64 124.5


*SIMULATED CROP AND SOIL STATUS AT MAIN DEVELOPMENT STAGES
  
 RUN NO.      7   ROOTS ANATOMY                                               

 ...... DATE ......  GROWTH STAGE BIOMASS   LEAF       CROP N      STRESS
 YEARDOY DOM MON DAP ............. kg/ha AREA NUMBER  kg/ha   %   H2O    N
 2022327  23 Nov   0 7 Sowing         0  0.00   0.0     0   0.0  0.00  0.00
 2022328  24 Nov   1 8 Germinate      0  0.00   0.0     0   0.0  0.00  0.00
 2022330  26 Nov   3 9 Emergence      0  0.00   0.0     0   0.0  0.00  0.00
 2023029  29 Jan  67 1 Term Spklt  2282  4.00   9.5   109   4.8  0.28  0.11
 2023048  17 Feb  86 2 End Veg     4542  6.73  11.9   149   3.3  0.07  0.00
 2023060   1 Mar  98 3 End Ear Gr  6619  5.74  11.9   146   2.2  0.00  0.00
 2023075  16 Mar 113 4 Beg Gr Fil 10186  4.59  11.9   145   1.4  0.10  0.00
 2023104  14 Apr 142 5 End Gr Fil 16791  1.00  11.9   184   1.1  0.19  0.00
 2023104  14 Apr 142 6 Harvest    16791  1.00  11.9   184   1.1  0.64  0.00
  

*MAIN GROWTH AND DEVELOPMENT VARIABLES

@     VARIABLE                             SIMULATED     MEASURED
      --------                             ---------     --------
      Emergence (DAP)                            3            7
      Anthesis (DAP)                           101          101
      Maturity (DAP)                           142          142
      Product wt (kg dm/ha;no loss)           6646         6650
      Product unit weight (g dm)             0.041        0.041
      Product number (no/m2)                 16019        16031
      Product number (no/group)               30.2        -99.0
      Product harvest index (ratio)           0.40         0.41
      Maximum leaf area index                  6.7          6.7
      Final leaf number (one axis)            11.9        -99.0
      Final shoot number (#/m2)                531          -99
      Canopy (tops) wt (kg dm/ha)            16791        16066
      Vegetative wt (kg dm/ha)               10145         9416
      Root wt (kg dm/ha)                      1035          -99
      Assimilate wt (kg dm/ha)               18868          -99
      Senesced wt (kg dm/ha)                   350          -99
      Reserves wt (kg dm/ha)                  4661          -99
      N uptake (kg/ha)                       205.0        -99.0
      N senesced (kg/ha)                       4.8        -99.0
      Above-ground N (kg/ha)                 183.5        -99.0
      Root N (kg/ha)                          17.4        -99.0
      Vegetative N (kg/ha)                    42.7        -99.0
      Product N (kg/ha)                      140.9        123.9
      Product N harvest index (ratio)         0.77       -99.00
      Product N (%)                            2.1          1.9
      Vegetative N (%)                         0.4        -99.0
      Leaf+stem wt,anthesis (kg dm/ha)        7335          -99
      Leaf+stem N,anthesis (kg/ha)           145.8        -99.0
      Leaf N,anthesis (%)                      3.0        -99.0

*ENVIRONMENTAL AND STRESS FACTORS

 |-----Development Phase------|-------------Environment--------------|----------------Stress-----------------|
                              |--------Average-------|---Cumulative--|         (0=Min, 1=Max Stress)         |
                         Time  Temp  Temp Solar Photop         Evapo |----Water---|--Nitrogen--|--Phosphorus-|
                         Span   Max   Min   Rad  [day]   Rain  Trans  Photo         Photo         Photo
                         days    °C    °C MJ/m2     hr     mm     mm  synth Growth ' synth Growth  synth Growth
--------------------------------------------------------------------------------------------------------------
 Germinate  - Term Spklt   64  26.2   7.1  14.4  11.36   10.0  101.5  0.275  0.370  0.105  0.105 -99.00 -99.00
 Term Spklt - End Veg      19  25.0   5.7  15.7  11.82    3.6   54.7  0.065  0.130  0.000  0.000 -99.00 -99.00
 End Veg    - End Ear Gr   12  23.5   8.6  15.1  12.17    8.6   35.5  0.000  0.000  0.000  0.000 -99.00 -99.00
 End Ear Gr - Beg Gr Fil   15  29.0   7.7  21.3  12.51    0.1   60.7  0.102  0.159  0.000  0.000 -99.00 -99.00
 Beg Gr Fil - End Gr Fil   29  29.0   8.8  23.5  13.12   65.8  111.8  0.186  0.227  0.000  0.000 -99.00 -99.00
  
 Germinate  - End Gr Fil  139  26.7   7.4  17.3  11.99   88.1  364.2  0.185  0.253  0.048  0.048 -99.00 -99.00
--------------------------------------------------------------------------------------------------------------


*RESOURCE PRODUCTIVITY

 Growing season length: 139 days 

 Precipitation during growth season         88.1 mm[rain]
   Dry Matter Productivity                 19.06 kg[DM]/m3[rain]          =  190.6 kg[DM]/ha per mm[rain]
   Yield Productivity                       7.54 kg[grain yield]/m3[rain] =   75.4 kg[yield]/ha per mm[rain]

 Evapotranspiration during growth season   364.2 mm[ET]
   Dry Matter Productivity                  4.61 kg[DM]/m3[ET]            =   46.1 kg[DM]/ha per mm[ET]
   Yield Productivity                       1.82 kg[grain yield]/m3[ET]   =   18.2 kg[yield]/ha per mm[ET]

 Transpiration during growth season        302.6 mm[EP]
   Dry Matter Productivity                  5.55 kg[DM]/m3[EP]            =   55.5 kg[DM]/ha per mm[EP]
   Yield Productivity                       2.20 kg[grain yield]/m3[EP]   =   22.0 kg[yield]/ha per mm[EP]

 Irrigation during growing season          525.1 mm[irrig]
   Dry Matter Productivity                  3.20 kg[DM]/m3[irrig]         =   32.0 kg[DM]/ha per mm[irrig]
   Yield Productivity                       1.27 kg[grain yield]/m3[irrig]=   12.7 kg[yield]/ha per mm[irrig]

 N applied during growing season           323.0 kg[N applied]/ha
   Dry Matter Productivity                  52.0 kg[DM]/kg[N applied]
   Yield Productivity                       20.6 kg[yield]/kg[N applied]

 N uptake during growing season            205.0 kg[N uptake]/ha
   Dry Matter Productivity                  81.9 kg[DM]/kg[N uptake]
   Yield Productivity                       32.4 kg[yield]/kg[N uptake]

--------------------------------------------------------------------------------------------------------------

          WHEAT YIELD :     6646 kg/ha    [Dry weight] 

**************************************************************************************************************
  

*DSSAT Cropping System Model Ver. 4.8.2.000 -release  AUG 18, 2025 20:50:01

*RUN   8        : WW23_G-8                  CSCER048 CIOB2301    8
 MODEL          : CSCER048 - Wheat
 EXPERIMENT     : CIOB2301 WH ROOTS ANATOMY
 DATA PATH      : C:\DSSAT48\Wheat\
 TREATMENT  8   : WW23_G-8                  CSCER048


 CROP           : Wheat            CULTIVAR : ENTRY 8          ECOTYPE :CI0700
 STARTING DATE  : SEP  1 2022
 PLANTING DATE  : NOV 23 2022      PLANTS/m2 :   137.0    ROW SPACING :  20.cm
 WEATHER        : CIOB   2022
 SOIL           : CCENEB2301     TEXTURE : C     -   CIMMYT CENEB 710
 SOIL INIT COND : DEPTH:120cm EXTR. H2O: 82.8mm  NO3:484.0kg/ha  NH4:341.8kg/ha
 WATER BALANCE  : IRRIGATE ON REPORTED DATE(S)
 IRRIGATION     :      525 mm IN     9 APPLICATIONS
 NITROGEN BAL.  : SOIL-N & N-UPTAKE SIMULATION; NO N-FIXATION
 N-FERTILIZER   :      323 kg/ha IN     3 APPLICATIONS
 RESIDUE/MANURE : INITIAL :     0 kg/ha ;    2222 kg/ha IN     1 APPLICATIONS
 ENVIRONM. OPT. : DAYL=    0.00  SRAD=    0.00  TMAX=    0.00  TMIN=    0.00
                  RAIN=    0.00  CO2 =    0.00  DEW =    0.00  WIND=    0.00
 SIMULATION OPT : WATER   :Y  NITROGEN:Y  N-FIX:N  PHOSPH :N  PESTS  :N
                  PHOTO   :C  ET      :R  INFIL:S  HYDROL :R  SOM    :G
                  CO2 418ppm  NSWIT   :1  EVAP :R  SOIL   :2  STEMP  :D
 MANAGEMENT OPT : PLANTING:R  IRRIG   :R  FERT :R  RESIDUE:R  HARVEST:M
                  WEATHER :M  TILLAGE :Y

*SUMMARY OF SOIL AND GENETIC INPUT PARAMETERS

   SOIL LOWER UPPER   SAT  EXTR  INIT   ROOT   BULK     pH    NO3    NH4    ORG
  DEPTH LIMIT LIMIT    SW    SW    SW   DIST   DENS                          C
   cm   cm3/cm3    cm3/cm3    cm3/cm3         g/cm3         ugN/g  ugN/g     %
-------------------------------------------------------------------------------
  0-  5 0.143 0.204 0.268 0.061 0.172   1.00   1.35   8.50  29.00  29.00   1.08
  5- 15 0.143 0.204 0.268 0.061 0.172   1.00   1.35   8.50  29.00  29.00   1.08
 15- 30 0.143 0.204 0.268 0.061 0.172   1.00   1.35   8.50  29.00  29.00   1.08
 30- 45 0.166 0.234 0.274 0.068 0.225   0.41   1.58   8.50  27.00  16.00   0.80
 45- 60 0.166 0.234 0.274 0.068 0.225   0.41   1.58   8.50  27.00  16.00   0.80
 60- 90 0.155 0.227 0.276 0.072 0.207   0.22   1.50   7.90  53.00  33.00   0.87
 90-120 0.188 0.263 0.308 0.075 0.263   0.12   1.38   8.00   0.01   0.01   0.40

TOT-120  19.6  27.8  33.8   8.3  26.0  <--cm   -  kg/ha-->  484.0  341.8 137370
SOIL ALBEDO    : 0.13      EVAPORATION LIMIT : 6.00         MIN. FACTOR  : 1.00
RUNOFF CURVE # :61.00      DRAINAGE RATE     : 0.60         FERT. FACTOR : 1.00

 Wheat            CULTIVAR: 748118-ENTRY 8            ECOTYPE: CI0700
   P1V   P1D    P5    G1    G2    G3 PHINT
   2.0  42.0 621.0  19.6  46.5  3.52 100.2


*SIMULATED CROP AND SOIL STATUS AT MAIN DEVELOPMENT STAGES
  
 RUN NO.      8   ROOTS ANATOMY                                               

 ...... DATE ......  GROWTH STAGE BIOMASS   LEAF       CROP N      STRESS
 YEARDOY DOM MON DAP ............. kg/ha AREA NUMBER  kg/ha   %   H2O    N
 2022327  23 Nov   0 7 Sowing         0  0.00   0.0     0   0.0  0.00  0.00
 2022328  24 Nov   1 8 Germinate      0  0.00   0.0     0   0.0  0.00  0.00
 2022330  26 Nov   3 9 Emergence      0  0.00   0.0     0   0.0  0.00  0.00
 2023031  31 Jan  69 1 Term Spklt  2117  3.45  11.9    99   4.7  0.24  0.07
 2023049  18 Feb  87 2 End Veg     3895  5.71  14.7   132   3.4  0.03  0.00
 2023062   3 Mar 100 3 End Ear Gr  6979  5.12  14.7   127   1.8  0.00  0.00
 2023076  17 Mar 114 4 Beg Gr Fil 11018  4.14  14.7   126   1.1  0.10  0.00
 2023108  18 Apr 146 5 End Gr Fil 19596  1.24  14.7   166   0.8  0.28  0.00
 2023108  18 Apr 146 6 Harvest    19596  1.24  14.7   166   0.8  0.75  0.00
  

*MAIN GROWTH AND DEVELOPMENT VARIABLES

@     VARIABLE                             SIMULATED     MEASURED
      --------                             ---------     --------
      Emergence (DAP)                            3            7
      Anthesis (DAP)                           104          104
      Maturity (DAP)                           146          146
      Product wt (kg dm/ha;no loss)           6342         6393
      Product unit weight (g dm)             0.041        0.041
      Product number (no/m2)                 15434        15446
      Product number (no/group)               16.6        -99.0
      Product harvest index (ratio)           0.32         0.31
      Maximum leaf area index                  5.7          5.7
      Final leaf number (one axis)            14.7        -99.0
      Final shoot number (#/m2)                927          -99
      Canopy (tops) wt (kg dm/ha)            19596        20909
      Vegetative wt (kg dm/ha)               13254        14516
      Root wt (kg dm/ha)                      1066          -99
      Assimilate wt (kg dm/ha)               21775          -99
      Senesced wt (kg dm/ha)                   399          -99
      Reserves wt (kg dm/ha)                  7226          -99
      N uptake (kg/ha)                       188.6        -99.0
      N senesced (kg/ha)                       5.5        -99.0
      Above-ground N (kg/ha)                 165.9        -99.0
      Root N (kg/ha)                          17.9        -99.0
      Vegetative N (kg/ha)                    44.0        -99.0
      Product N (kg/ha)                      121.9        141.9
      Product N harvest index (ratio)         0.73       -99.00
      Product N (%)                            1.9          2.2
      Vegetative N (%)                         0.3        -99.0
      Leaf+stem wt,anthesis (kg dm/ha)        7796          -99
      Leaf+stem N,anthesis (kg/ha)           126.4        -99.0
      Leaf N,anthesis (%)                      3.0        -99.0

*ENVIRONMENTAL AND STRESS FACTORS

 |-----Development Phase------|-------------Environment--------------|----------------Stress-----------------|
                              |--------Average-------|---Cumulative--|         (0=Min, 1=Max Stress)         |
                         Time  Temp  Temp Solar Photop         Evapo |----Water---|--Nitrogen--|--Phosphorus-|
                         Span   Max   Min   Rad  [day]   Rain  Trans  Photo         Photo         Photo
                         days    °C    °C MJ/m2     hr     mm     mm  synth Growth ' synth Growth  synth Growth
--------------------------------------------------------------------------------------------------------------
 Germinate  - Term Spklt   66  26.1   7.0  14.4  11.37   10.0  112.0  0.243  0.340  0.065  0.065 -99.00 -99.00
 Term Spklt - End Veg      18  25.1   6.1  15.5  11.85   11.8   53.1  0.033  0.061  0.000  0.000 -99.00 -99.00
 End Veg    - End Ear Gr   13  23.5   8.1  16.3  12.20    0.5   41.5  0.000  0.013  0.000  0.000 -99.00 -99.00
 End Ear Gr - Beg Gr Fil   14  29.5   8.4  20.3  12.55   13.7   54.8  0.096  0.141  0.000  0.000 -99.00 -99.00
 Beg Gr Fil - End Gr Fil   32  29.3   8.8  24.2  13.19   52.1  115.2  0.284  0.323  0.000  0.000 -99.00 -99.00
  
 Germinate  - End Gr Fil  143  26.8   7.5  17.5  12.03   88.1  376.5  0.189  0.252  0.030  0.030 -99.00 -99.00
--------------------------------------------------------------------------------------------------------------


*RESOURCE PRODUCTIVITY

 Growing season length: 143 days 

 Precipitation during growth season         88.1 mm[rain]
   Dry Matter Productivity                 22.24 kg[DM]/m3[rain]          =  222.4 kg[DM]/ha per mm[rain]
   Yield Productivity                       7.20 kg[grain yield]/m3[rain] =   72.0 kg[yield]/ha per mm[rain]

 Evapotranspiration during growth season   376.5 mm[ET]
   Dry Matter Productivity                  5.20 kg[DM]/m3[ET]            =   52.0 kg[DM]/ha per mm[ET]
   Yield Productivity                       1.68 kg[grain yield]/m3[ET]   =   16.8 kg[yield]/ha per mm[ET]

 Transpiration during growth season        318.4 mm[EP]
   Dry Matter Productivity                  6.15 kg[DM]/m3[EP]            =   61.5 kg[DM]/ha per mm[EP]
   Yield Productivity                       1.99 kg[grain yield]/m3[EP]   =   19.9 kg[yield]/ha per mm[EP]

 Irrigation during growing season          525.1 mm[irrig]
   Dry Matter Productivity                  3.73 kg[DM]/m3[irrig]         =   37.3 kg[DM]/ha per mm[irrig]
   Yield Productivity                       1.21 kg[grain yield]/m3[irrig]=   12.1 kg[yield]/ha per mm[irrig]

 N applied during growing season           323.0 kg[N applied]/ha
   Dry Matter Productivity                  60.7 kg[DM]/kg[N applied]
   Yield Productivity                       19.6 kg[yield]/kg[N applied]

 N uptake during growing season            188.6 kg[N uptake]/ha
   Dry Matter Productivity                 103.9 kg[DM]/kg[N uptake]
   Yield Productivity                       33.6 kg[yield]/kg[N uptake]

--------------------------------------------------------------------------------------------------------------

          WHEAT YIELD :     6342 kg/ha    [Dry weight] 

**************************************************************************************************************
  

*DSSAT Cropping System Model Ver. 4.8.2.000 -release  AUG 18, 2025 20:50:01

*RUN   9        : WW23_G-9                  CSCER048 CIOB2301    9
 MODEL          : CSCER048 - Wheat
 EXPERIMENT     : CIOB2301 WH ROOTS ANATOMY
 DATA PATH      : C:\DSSAT48\Wheat\
 TREATMENT  9   : WW23_G-9                  CSCER048


 CROP           : Wheat            CULTIVAR : ENTRY 9          ECOTYPE :CI0700
 STARTING DATE  : SEP  1 2022
 PLANTING DATE  : NOV 23 2022      PLANTS/m2 :   137.0    ROW SPACING :  20.cm
 WEATHER        : CIOB   2022
 SOIL           : CCENEB2301     TEXTURE : C     -   CIMMYT CENEB 710
 SOIL INIT COND : DEPTH:120cm EXTR. H2O: 82.8mm  NO3:484.0kg/ha  NH4:341.8kg/ha
 WATER BALANCE  : IRRIGATE ON REPORTED DATE(S)
 IRRIGATION     :      525 mm IN     9 APPLICATIONS
 NITROGEN BAL.  : SOIL-N & N-UPTAKE SIMULATION; NO N-FIXATION
 N-FERTILIZER   :      323 kg/ha IN     3 APPLICATIONS
 RESIDUE/MANURE : INITIAL :     0 kg/ha ;    2222 kg/ha IN     1 APPLICATIONS
 ENVIRONM. OPT. : DAYL=    0.00  SRAD=    0.00  TMAX=    0.00  TMIN=    0.00
                  RAIN=    0.00  CO2 =    0.00  DEW =    0.00  WIND=    0.00
 SIMULATION OPT : WATER   :Y  NITROGEN:Y  N-FIX:N  PHOSPH :N  PESTS  :N
                  PHOTO   :C  ET      :R  INFIL:S  HYDROL :R  SOM    :G
                  CO2 418ppm  NSWIT   :1  EVAP :R  SOIL   :2  STEMP  :D
 MANAGEMENT OPT : PLANTING:R  IRRIG   :R  FERT :R  RESIDUE:R  HARVEST:M
                  WEATHER :M  TILLAGE :Y

*SUMMARY OF SOIL AND GENETIC INPUT PARAMETERS

   SOIL LOWER UPPER   SAT  EXTR  INIT   ROOT   BULK     pH    NO3    NH4    ORG
  DEPTH LIMIT LIMIT    SW    SW    SW   DIST   DENS                          C
   cm   cm3/cm3    cm3/cm3    cm3/cm3         g/cm3         ugN/g  ugN/g     %
-------------------------------------------------------------------------------
  0-  5 0.143 0.204 0.268 0.061 0.172   1.00   1.35   8.50  29.00  29.00   1.08
  5- 15 0.143 0.204 0.268 0.061 0.172   1.00   1.35   8.50  29.00  29.00   1.08
 15- 30 0.143 0.204 0.268 0.061 0.172   1.00   1.35   8.50  29.00  29.00   1.08
 30- 45 0.166 0.234 0.274 0.068 0.225   0.41   1.58   8.50  27.00  16.00   0.80
 45- 60 0.166 0.234 0.274 0.068 0.225   0.41   1.58   8.50  27.00  16.00   0.80
 60- 90 0.155 0.227 0.276 0.072 0.207   0.22   1.50   7.90  53.00  33.00   0.87
 90-120 0.188 0.263 0.308 0.075 0.263   0.12   1.38   8.00   0.01   0.01   0.40

TOT-120  19.6  27.8  33.8   8.3  26.0  <--cm   -  kg/ha-->  484.0  341.8 137370
SOIL ALBEDO    : 0.13      EVAPORATION LIMIT : 6.00         MIN. FACTOR  : 1.00
RUNOFF CURVE # :61.00      DRAINAGE RATE     : 0.60         FERT. FACTOR : 1.00

 Wheat            CULTIVAR: 474804-ENTRY 9            ECOTYPE: CI0700
   P1V   P1D    P5    G1    G2    G3 PHINT
   2.0  40.9 572.5  20.4  44.8  4.00 103.0


*SIMULATED CROP AND SOIL STATUS AT MAIN DEVELOPMENT STAGES
  
 RUN NO.      9   ROOTS ANATOMY                                               

 ...... DATE ......  GROWTH STAGE BIOMASS   LEAF       CROP N      STRESS
 YEARDOY DOM MON DAP ............. kg/ha AREA NUMBER  kg/ha   %   H2O    N
 2022327  23 Nov   0 7 Sowing         0  0.00   0.0     0   0.0  0.00  0.00
 2022328  24 Nov   1 8 Germinate      0  0.00   0.0     0   0.0  0.00  0.00
 2022330  26 Nov   3 9 Emergence      0  0.00   0.0     0   0.0  0.00  0.00
 2023031  31 Jan  69 1 Term Spklt  2169  3.55  11.6   102   4.7  0.24  0.07
 2023049  18 Feb  87 2 End Veg     3949  5.82  14.3   133   3.4  0.03  0.00
 2023062   3 Mar 100 3 End Ear Gr  7039  5.22  14.3   128   1.8  0.00  0.00
 2023076  17 Mar 114 4 Beg Gr Fil 11091  4.21  14.3   127   1.1  0.10  0.00
 2023106  16 Apr 144 5 End Gr Fil 19547  1.23  14.3   165   0.8  0.25  0.00
 2023106  16 Apr 144 6 Harvest    19547  1.23  14.3   165   0.8  0.77  0.00
  

*MAIN GROWTH AND DEVELOPMENT VARIABLES

@     VARIABLE                             SIMULATED     MEASURED
      --------                             ---------     --------
      Emergence (DAP)                            3            7
      Anthesis (DAP)                           103          101
      Maturity (DAP)                           144          145
      Product wt (kg dm/ha;no loss)           6288         6560
      Product unit weight (g dm)             0.040        0.043
      Product number (no/m2)                 15581        15412
      Product number (no/group)               17.6        -99.0
      Product harvest index (ratio)           0.32         0.33
      Maximum leaf area index                  5.8          5.8
      Final leaf number (one axis)            14.3        -99.0
      Final shoot number (#/m2)                888          -99
      Canopy (tops) wt (kg dm/ha)            19547        20154
      Vegetative wt (kg dm/ha)               13260        13594
      Root wt (kg dm/ha)                      1069          -99
      Assimilate wt (kg dm/ha)               21735          -99
      Senesced wt (kg dm/ha)                   404          -99
      Reserves wt (kg dm/ha)                  7193          -99
      N uptake (kg/ha)                       187.7        -99.0
      N senesced (kg/ha)                       5.6        -99.0
      Above-ground N (kg/ha)                 165.0        -99.0
      Root N (kg/ha)                          18.0        -99.0
      Vegetative N (kg/ha)                    44.1        -99.0
      Product N (kg/ha)                      120.9        131.8
      Product N harvest index (ratio)         0.73       -99.00
      Product N (%)                            1.9          2.0
      Vegetative N (%)                         0.3        -99.0
[...]
   Dry Matter Productivity                  4.57 kg[DM]/m3[rain]          =   45.7 kg[DM]/ha per mm[rain]
   Yield Productivity                       1.47 kg[grain yield]/m3[rain] =   14.7 kg[yield]/ha per mm[rain]

 Evapotranspiration during growth season   106.9 mm[ET]
   Dry Matter Productivity                  3.77 kg[DM]/m3[ET]            =   37.7 kg[DM]/ha per mm[ET]
   Yield Productivity                       1.21 kg[grain yield]/m3[ET]   =   12.1 kg[yield]/ha per mm[ET]

 Transpiration during growth season         70.7 mm[EP]
   Dry Matter Productivity                  5.69 kg[DM]/m3[EP]            =   56.9 kg[DM]/ha per mm[EP]
   Yield Productivity                       1.83 kg[grain yield]/m3[EP]   =   18.3 kg[yield]/ha per mm[EP]

 Irrigation during growing season          120.0 mm[irrig]
   Dry Matter Productivity                  3.36 kg[DM]/m3[irrig]         =   33.6 kg[DM]/ha per mm[irrig]
   Yield Productivity                       1.08 kg[grain yield]/m3[irrig]=   10.8 kg[yield]/ha per mm[irrig]

 N applied during growing season           173.0 kg[N applied]/ha
   Dry Matter Productivity                  23.3 kg[DM]/kg[N applied]
   Yield Productivity                        7.5 kg[yield]/kg[N applied]

 N uptake during growing season             42.2 kg[N uptake]/ha
   Dry Matter Productivity                  95.3 kg[DM]/kg[N uptake]
   Yield Productivity                       30.6 kg[yield]/kg[N uptake]

--------------------------------------------------------------------------------------------------------------

          WHEAT YIELD :     1294 kg/ha    [Dry weight] 

**************************************************************************************************************
  

*DSSAT Cropping System Model Ver. 4.8.2.000 -release  AUG 18, 2025 20:50:04

*RUN  69        : DR23_G-13                 CSCER048 CIOB2302   13
 MODEL          : CSCER048 - Wheat
 EXPERIMENT     : CIOB2302 WH ROOTS ANATOMY DROUGHT
 DATA PATH      : C:\DSSAT48\Wheat\
 TREATMENT 13   : DR23_G-13                 CSCER048


 CROP           : Wheat            CULTIVAR : ENTRY 13         ECOTYPE :CI0701
 STARTING DATE  : SEP  1 2022
 PLANTING DATE  : DEC  3 2022      PLANTS/m2 :   150.0    ROW SPACING :  36.cm
 WEATHER        : CIOB   2022
 SOIL           : CCENEB2301     TEXTURE : C     -   CIMMYT CENEB 710
 SOIL INIT COND : DEPTH:120cm EXTR. H2O: 82.8mm  NO3:252.3kg/ha  NH4:205.5kg/ha
 WATER BALANCE  : IRRIGATE ON REPORTED DATE(S)
 IRRIGATION     :      120 mm IN     1 APPLICATIONS
 NITROGEN BAL.  : SOIL-N & N-UPTAKE SIMULATION; NO N-FIXATION
 N-FERTILIZER   :      173 kg/ha IN     2 APPLICATIONS
 RESIDUE/MANURE : INITIAL :     0 kg/ha ;    2222 kg/ha IN     1 APPLICATIONS
 ENVIRONM. OPT. : DAYL=    0.00  SRAD=    0.00  TMAX=    0.00  TMIN=    0.00
                  RAIN=    0.00  CO2 =    0.00  DEW =    0.00  WIND=    0.00
 SIMULATION OPT : WATER   :Y  NITROGEN:Y  N-FIX:N  PHOSPH :N  PESTS  :N
                  PHOTO   :C  ET      :R  INFIL:S  HYDROL :R  SOM    :G
                  CO2 418ppm  NSWIT   :1  EVAP :R  SOIL   :2  STEMP  :D
 MANAGEMENT OPT : PLANTING:R  IRRIG   :R  FERT :R  RESIDUE:R  HARVEST:M
                  WEATHER :M  TILLAGE :Y

*SUMMARY OF SOIL AND GENETIC INPUT PARAMETERS

   SOIL LOWER UPPER   SAT  EXTR  INIT   ROOT   BULK     pH    NO3    NH4    ORG
  DEPTH LIMIT LIMIT    SW    SW    SW   DIST   DENS                          C
   cm   cm3/cm3    cm3/cm3    cm3/cm3         g/cm3         ugN/g  ugN/g     %
-------------------------------------------------------------------------------
  0-  5 0.143 0.204 0.268 0.061 0.204   1.00   1.35   8.80  19.00  12.00   1.10
  5- 15 0.143 0.204 0.268 0.061 0.204   1.00   1.35   8.80  19.00  12.00   1.10
 15- 30 0.143 0.204 0.268 0.061 0.204   1.00   1.35   8.80  19.00  12.00   1.10
 30- 45 0.166 0.234 0.274 0.068 0.230   0.41   1.58   8.50  18.00  16.00   0.40
 45- 60 0.166 0.234 0.274 0.068 0.230   0.41   1.58   8.50  18.00  16.00   0.40
 60- 90 0.155 0.227 0.276 0.072 0.230   0.22   1.50   8.50  20.00  18.00   0.40
 90-120 0.188 0.263 0.308 0.075 0.263   0.12   1.38   8.00   0.01   0.01   0.40

TOT-120  19.6  27.8  33.8   8.3  27.8  <--cm   -  kg/ha-->  252.3  205.5  98070
SOIL ALBEDO    : 0.13      EVAPORATION LIMIT : 6.00         MIN. FACTOR  : 1.00
RUNOFF CURVE # :61.00      DRAINAGE RATE     : 0.60         FERT. FACTOR : 1.00

 Wheat            CULTIVAR: 542933-ENTRY 13           ECOTYPE: CI0701
   P1V   P1D    P5    G1    G2    G3 PHINT
   2.0  40.5 561.1  19.5  53.2  8.00 127.8


*SIMULATED CROP AND SOIL STATUS AT MAIN DEVELOPMENT STAGES
  
 RUN NO.     69   ROOTS ANATOMY DROUGHT                                       

 ...... DATE ......  GROWTH STAGE BIOMASS   LEAF       CROP N      STRESS
 YEARDOY DOM MON DAP ............. kg/ha AREA NUMBER  kg/ha   %   H2O    N
 2022337   3 Dec   0 7 Sowing         0  0.00   0.0     0   0.0  0.00  0.00
 2022338   4 Dec   1 8 Germinate      0  0.00   0.0     0   0.0  0.00  0.00
 2022339   5 Dec   2 9 Emergence      0  0.00   0.0     0   0.0  0.00  0.00
 2023030  30 Jan  58 1 Term Spklt   545  0.96   8.0    25   4.7  0.56  0.11
 2023049  18 Feb  77 2 End Veg      900  1.31  10.3    28   3.2  0.65  0.00
 2023061   2 Mar  89 3 End Ear Gr  1341  0.93  10.3    28   2.1  0.57  0.00
 2023075  16 Mar 103 4 Beg Gr Fil  1713  0.60  10.3    27   1.6  0.76  0.00
 2023105  15 Apr 133 5 End Gr Fil  4008  0.13  10.3    37   0.9  0.17  0.00
 2023105  15 Apr 133 6 Harvest     4008  0.13  10.3    37   0.9  0.10  0.00
  

*MAIN GROWTH AND DEVELOPMENT VARIABLES

@     VARIABLE                             SIMULATED     MEASURED
      --------                             ---------     --------
      Emergence (DAP)                            2            6
      Anthesis (DAP)                            92           86
      Maturity (DAP)                           133          118
      Product wt (kg dm/ha;no loss)           1393         3437
      Product unit weight (g dm)             0.053        0.039
      Product number (no/m2)                  2618         8856
      Product number (no/group)                8.7        -99.0
      Product harvest index (ratio)           0.35         0.41
      Maximum leaf area index                  1.3          4.6
      Final leaf number (one axis)            10.3        -99.0
      Final shoot number (#/m2)                301          -99
      Canopy (tops) wt (kg dm/ha)             4008         8377
      Vegetative wt (kg dm/ha)                2615         4940
      Root wt (kg dm/ha)                       315          -99
      Assimilate wt (kg dm/ha)                4708          -99
      Senesced wt (kg dm/ha)                   226          -99
      Reserves wt (kg dm/ha)                  1649          -99
      N uptake (kg/ha)                        44.3        -99.0
      N senesced (kg/ha)                       3.1        -99.0
      Above-ground N (kg/ha)                  37.3        -99.0
      Root N (kg/ha)                           5.3        -99.0
      Vegetative N (kg/ha)                     7.2        -99.0
      Product N (kg/ha)                       30.1         68.3
      Product N harvest index (ratio)         0.81       -99.00
      Product N (%)                            2.2          2.0
      Vegetative N (%)                         0.3        -99.0
      Leaf+stem wt,anthesis (kg dm/ha)        1429          -99
      Leaf+stem N,anthesis (kg/ha)            27.4        -99.0
      Leaf N,anthesis (%)                      3.0        -99.0

*ENVIRONMENTAL AND STRESS FACTORS

 |-----Development Phase------|-------------Environment--------------|----------------Stress-----------------|
                              |--------Average-------|---Cumulative--|         (0=Min, 1=Max Stress)         |
                         Time  Temp  Temp Solar Photop         Evapo |----Water---|--Nitrogen--|--Phosphorus-|
                         Span   Max   Min   Rad  [day]   Rain  Trans  Photo         Photo         Photo
                         days    °C    °C MJ/m2     hr     mm     mm  synth Growth ' synth Growth  synth Growth
--------------------------------------------------------------------------------------------------------------
 Germinate  - Term Spklt   56  25.6   6.5  14.4  11.36   10.0   29.7  0.564  0.651  0.108  0.108 -99.00 -99.00
 Term Spklt - End Veg      19  25.0   6.0  15.5  11.84   11.8   14.1  0.646  0.728  0.000  0.000 -99.00 -99.00
 End Veg    - End Ear Gr   12  23.3   8.3  15.8  12.19    0.5   13.1  0.569  0.668  0.000  0.000 -99.00 -99.00
 End Ear Gr - Beg Gr Fil   14  29.5   7.7  21.3  12.53    0.0    6.3  0.762  0.817  0.000  0.000 -99.00 -99.00
 Beg Gr Fil - End Gr Fil   30  29.0   8.8  23.6  13.14   65.8   43.2  0.174  0.272  0.000  0.000 -99.00 -99.00
  
 Germinate  - End Gr Fil  131  26.5   7.3  17.5  12.04   88.1  106.4  0.508  0.594  0.046  0.046 -99.00 -99.00
--------------------------------------------------------------------------------------------------------------


*RESOURCE PRODUCTIVITY

 Growing season length: 131 days 

 Precipitation during growth season         88.1 mm[rain]
   Dry Matter Productivity                  4.55 kg[DM]/m3[rain]          =   45.5 kg[DM]/ha per mm[rain]
   Yield Productivity                       1.58 kg[grain yield]/m3[rain] =   15.8 kg[yield]/ha per mm[rain]

 Evapotranspiration during growth season   106.4 mm[ET]
   Dry Matter Productivity                  3.77 kg[DM]/m3[ET]            =   37.7 kg[DM]/ha per mm[ET]
   Yield Productivity                       1.31 kg[grain yield]/m3[ET]   =   13.1 kg[yield]/ha per mm[ET]

 Transpiration during growth season         70.3 mm[EP]
   Dry Matter Productivity                  5.70 kg[DM]/m3[EP]            =   57.0 kg[DM]/ha per mm[EP]
   Yield Productivity                       1.98 kg[grain yield]/m3[EP]   =   19.8 kg[yield]/ha per mm[EP]

 Irrigation during growing season          120.0 mm[irrig]
   Dry Matter Productivity                  3.34 kg[DM]/m3[irrig]         =   33.4 kg[DM]/ha per mm[irrig]
   Yield Productivity                       1.16 kg[grain yield]/m3[irrig]=   11.6 kg[yield]/ha per mm[irrig]

 N applied during growing season           173.0 kg[N applied]/ha
   Dry Matter Productivity                  23.2 kg[DM]/kg[N applied]
   Yield Productivity                        8.1 kg[yield]/kg[N applied]

 N uptake during growing season             44.3 kg[N uptake]/ha
   Dry Matter Productivity                  90.5 kg[DM]/kg[N uptake]
   Yield Productivity                       31.4 kg[yield]/kg[N uptake]

--------------------------------------------------------------------------------------------------------------

          WHEAT YIELD :     1393 kg/ha    [Dry weight] 

**************************************************************************************************************
  

*DSSAT Cropping System Model Ver. 4.8.2.000 -release  AUG 18, 2025 20:50:04

*RUN  70        : DR23_G-14                 CSCER048 CIOB2302   14
 MODEL          : CSCER048 - Wheat
 EXPERIMENT     : CIOB2302 WH ROOTS ANATOMY DROUGHT
 DATA PATH      : C:\DSSAT48\Wheat\
 TREATMENT 14   : DR23_G-14                 CSCER048


 CROP           : Wheat            CULTIVAR : ENTRY 14         ECOTYPE :CI0701
 STARTING DATE  : SEP  1 2022
 PLANTING DATE  : DEC  3 2022      PLANTS/m2 :   150.0    ROW SPACING :  36.cm
 WEATHER        : CIOB   2022
 SOIL           : CCENEB2301     TEXTURE : C     -   CIMMYT CENEB 710
 SOIL INIT COND : DEPTH:120cm EXTR. H2O: 82.8mm  NO3:252.3kg/ha  NH4:205.5kg/ha
 WATER BALANCE  : IRRIGATE ON REPORTED DATE(S)
 IRRIGATION     :      120 mm IN     1 APPLICATIONS
 NITROGEN BAL.  : SOIL-N & N-UPTAKE SIMULATION; NO N-FIXATION
 N-FERTILIZER   :      173 kg/ha IN     2 APPLICATIONS
 RESIDUE/MANURE : INITIAL :     0 kg/ha ;    2222 kg/ha IN     1 APPLICATIONS
 ENVIRONM. OPT. : DAYL=    0.00  SRAD=    0.00  TMAX=    0.00  TMIN=    0.00
                  RAIN=    0.00  CO2 =    0.00  DEW =    0.00  WIND=    0.00
 SIMULATION OPT : WATER   :Y  NITROGEN:Y  N-FIX:N  PHOSPH :N  PESTS  :N
                  PHOTO   :C  ET      :R  INFIL:S  HYDROL :R  SOM    :G
                  CO2 418ppm  NSWIT   :1  EVAP :R  SOIL   :2  STEMP  :D
 MANAGEMENT OPT : PLANTING:R  IRRIG   :R  FERT :R  RESIDUE:R  HARVEST:M
                  WEATHER :M  TILLAGE :Y

*SUMMARY OF SOIL AND GENETIC INPUT PARAMETERS

   SOIL LOWER UPPER   SAT  EXTR  INIT   ROOT   BULK     pH    NO3    NH4    ORG
  DEPTH LIMIT LIMIT    SW    SW    SW   DIST   DENS                          C
   cm   cm3/cm3    cm3/cm3    cm3/cm3         g/cm3         ugN/g  ugN/g     %
-------------------------------------------------------------------------------
  0-  5 0.143 0.204 0.268 0.061 0.204   1.00   1.35   8.80  19.00  12.00   1.10
  5- 15 0.143 0.204 0.268 0.061 0.204   1.00   1.35   8.80  19.00  12.00   1.10
 15- 30 0.143 0.204 0.268 0.061 0.204   1.00   1.35   8.80  19.00  12.00   1.10
 30- 45 0.166 0.234 0.274 0.068 0.230   0.41   1.58   8.50  18.00  16.00   0.40
 45- 60 0.166 0.234 0.274 0.068 0.230   0.41   1.58   8.50  18.00  16.00   0.40
 60- 90 0.155 0.227 0.276 0.072 0.230   0.22   1.50   8.50  20.00  18.00   0.40
 90-120 0.188 0.263 0.308 0.075 0.263   0.12   1.38   8.00   0.01   0.01   0.40

TOT-120  19.6  27.8  33.8   8.3  27.8  <--cm   -  kg/ha-->  252.3  205.5  98070
SOIL ALBEDO    : 0.13      EVAPORATION LIMIT : 6.00         MIN. FACTOR  : 1.00
RUNOFF CURVE # :61.00      DRAINAGE RATE     : 0.60         FERT. FACTOR : 1.00

 Wheat            CULTIVAR: 589328-ENTRY 14           ECOTYPE: CI0701
   P1V   P1D    P5    G1    G2    G3 PHINT
   2.0  38.3 534.1  25.8  44.0  4.16 129.7


*SIMULATED CROP AND SOIL STATUS AT MAIN DEVELOPMENT STAGES
  
 RUN NO.     70   ROOTS ANATOMY DROUGHT                                       

 ...... DATE ......  GROWTH STAGE BIOMASS   LEAF       CROP N      STRESS
 YEARDOY DOM MON DAP ............. kg/ha AREA NUMBER  kg/ha   %   H2O    N
 2022337   3 Dec   0 7 Sowing         0  0.00   0.0     0   0.0  0.00  0.00
 2022338   4 Dec   1 8 Germinate      0  0.00   0.0     0   0.0  0.00  0.00
 2022339   5 Dec   2 9 Emergence      0  0.00   0.0     0   0.0  0.00  0.00
 2023030  30 Jan  58 1 Term Spklt   546  0.96   7.9    25   4.6  0.57  0.11
 2023048  17 Feb  76 2 End Veg      889  1.32  10.1    28   3.2  0.65  0.00
 2023061   2 Mar  89 3 End Ear Gr  1359  0.90  10.1    27   2.0  0.57  0.00
 2023075  16 Mar 103 4 Beg Gr Fil  1730  0.58  10.1    27   1.6  0.76  0.00
 2023103  13 Apr 131 5 End Gr Fil  3937  0.16  10.1    40   1.0  0.15  0.00
 2023103  13 Apr 131 6 Harvest     3937  0.16  10.1    40   1.0  0.01  0.00
  

*MAIN GROWTH AND DEVELOPMENT VARIABLES

@     VARIABLE                             SIMULATED     MEASURED
      --------                             ---------     --------
      Emergence (DAP)                            2            6
      Anthesis (DAP)                            91           83
      Maturity (DAP)                           131          114
      Product wt (kg dm/ha;no loss)           1512         3107
      Product unit weight (g dm)             0.044        0.034
      Product number (no/m2)                  3436         9175
      Product number (no/group)               11.2        -99.0
      Product harvest index (ratio)           0.38         0.44
      Maximum leaf area index                  1.3          4.3
      Final leaf number (one axis)            10.1        -99.0
      Final shoot number (#/m2)                308          -99
      Canopy (tops) wt (kg dm/ha)             3937         7086
      Vegetative wt (kg dm/ha)                2425         3979
      Root wt (kg dm/ha)                       312          -99
      Assimilate wt (kg dm/ha)                4618          -99
      Senesced wt (kg dm/ha)                   213          -99
      Reserves wt (kg dm/ha)                  1435          -99
      N uptake (kg/ha)                        46.7        -99.0
      N senesced (kg/ha)                       2.9        -99.0
      Above-ground N (kg/ha)                  39.9        -99.0
      Root N (kg/ha)                           5.3        -99.0
      Vegetative N (kg/ha)                     7.5        -99.0
      Product N (kg/ha)                       32.4         59.1
      Product N harvest index (ratio)         0.81       -99.00
      Product N (%)                            2.1          1.9
      Vegetative N (%)                         0.3        -99.0
      Leaf+stem wt,anthesis (kg dm/ha)        1418          -99
      Leaf+stem N,anthesis (kg/ha)            27.2        -99.0
      Leaf N,anthesis (%)                      3.1        -99.0

*ENVIRONMENTAL AND STRESS FACTORS

 |-----Development Phase------|-------------Environment--------------|----------------Stress-----------------|
                              |--------Average-------|---Cumulative--|         (0=Min, 1=Max Stress)         |
                         Time  Temp  Temp Solar Photop         Evapo |----Water---|--Nitrogen--|--Phosphorus-|
                         Span   Max   Min   Rad  [day]   Rain  Trans  Photo         Photo         Photo
                         days    °C    °C MJ/m2     hr     mm     mm  synth Growth ' synth Growth  synth Growth
--------------------------------------------------------------------------------------------------------------
 Germinate  - Term Spklt   56  25.6   6.5  14.4  11.36   10.0   29.7  0.565  0.652  0.108  0.108 -99.00 -99.00
 Term Spklt - End Veg      18  25.1   5.7  15.7  11.83    3.6   12.9  0.647  0.728  0.000  0.000 -99.00 -99.00
 End Veg    - End Ear Gr   13  23.4   8.5  15.6  12.18    8.7   14.3  0.569  0.669  0.000  0.000 -99.00 -99.00
 End Ear Gr - Beg Gr Fil   14  29.5   7.7  21.3  12.53    0.0    6.3  0.759  0.815  0.000  0.000 -99.00 -99.00
 Beg Gr Fil - End Gr Fil   28  29.0   8.7  23.4  13.11   65.8   41.9  0.146  0.240  0.000  0.000 -99.00 -99.00
  
 Germinate  - End Gr Fil  129  26.5   7.2  17.4  12.02   88.1  105.0  0.507  0.592  0.047  0.047 -99.00 -99.00
--------------------------------------------------------------------------------------------------------------


*RESOURCE PRODUCTIVITY

 Growing season length: 129 days 

 Precipitation during growth season         88.1 mm[rain]
   Dry Matter Productivity                  4.47 kg[DM]/m3[rain]          =   44.7 kg[DM]/ha per mm[rain]
   Yield Productivity                       1.72 kg[grain yield]/m3[rain] =   17.2 kg[yield]/ha per mm[rain]

 Evapotranspiration during growth season   105.0 mm[ET]
   Dry Matter Productivity                  3.75 kg[DM]/m3[ET]            =   37.5 kg[DM]/ha per mm[ET]
   Yield Productivity                       1.44 kg[grain yield]/m3[ET]   =   14.4 kg[yield]/ha per mm[ET]

 Transpiration during growth season         69.0 mm[EP]
   Dry Matter Productivity                  5.71 kg[DM]/m3[EP]            =   57.1 kg[DM]/ha per mm[EP]
   Yield Productivity                       2.19 kg[grain yield]/m3[EP]   =   21.9 kg[yield]/ha per mm[EP]

 Irrigation during growing season          120.0 mm[irrig]
   Dry Matter Productivity                  3.28 kg[DM]/m3[irrig]         =   32.8 kg[DM]/ha per mm[irrig]
   Yield Productivity                       1.26 kg[grain yield]/m3[irrig]=   12.6 kg[yield]/ha per mm[irrig]

 N applied during growing season           173.0 kg[N applied]/ha
   Dry Matter Productivity                  22.8 kg[DM]/kg[N applied]
   Yield Productivity                        8.7 kg[yield]/kg[N applied]

 N uptake during growing season             46.7 kg[N uptake]/ha
   Dry Matter Productivity                  84.4 kg[DM]/kg[N uptake]
   Yield Productivity                       32.4 kg[yield]/kg[N uptake]

--------------------------------------------------------------------------------------------------------------

          WHEAT YIELD :     1512 kg/ha    [Dry weight] 

**************************************************************************************************************
