$GROWTH ASPECTS OUTPUT FILE

*DSSAT Cropping System Model Ver. 4.8.2.000 -release  AUG 18, 2025 20:50:00

*RUN   1        : WW23_G-1                  CSCER048 CIOB2301    1
 MODEL          : CSCER048 - Wheat
 EXPERIMENT     : CIOB2301 WH ROOTS ANATOMY
 DATA PATH      : C:\DSSAT48\Wheat\
 TREATMENT  1   : WW23_G-1                  CSCER048
  
@YEAR DOY   DAS   DAP TMEAN TKILL  GSTD  L#SD PARID PARUD  AWAD  LAID  SAID  CAID  TWAD SDWAD  RWAD  CWAD  LWAD  SWAD  HWAD  HIAD CHWAD  EWAD RSWAD SNWPD SNWLD SNWSD  RS%D  H#AD  HWUD  T#AD  SLAD  RDPD  PTFD  SWXD WAVRD WUPRD  WFTD  WFPD  WFGD  NFTD  NFPD  NFGD NUPRD  TFPD  TFGD VRNFD DYLFD
 2022 327    83     0  17.6  -6.0  0.00  0.00  0.00  0.00   0.0  0.00 0.000  0.00    43    43     0     0     0     0     0  0.00     0     0     0     0     0     0   0.0     0     0   150   -99  0.04  0.00  19.7  99.9  1.00  0.00  0.00  0.00  0.00  0.00  0.00   0.0  0.00  0.00  0.50  0.00
 2022 328    84     1  16.4  -6.0  5.84  0.00  0.00  0.00   0.0  0.00 0.000  0.00    43    43     0     0     0     0     0  0.00     0     0     0     0     0     0   0.0     0     0   150   -99  0.04  0.00   7.2  99.9  1.00  0.00  0.00  0.00  0.00  0.00  0.00   0.0  0.00  0.00  0.50  0.00
 2022 329    85     2  17.4  -6.0  8.40  0.00  0.00  0.00   0.0  0.00 0.000  0.00    43    42     1     0     0     0     0  0.00     0     0     0     0     0     0   0.0     0     0   150   -99  0.06  0.00   4.0  99.9  1.00  0.00  0.00  0.00  0.00  0.00  0.00   0.0  0.00  0.00  0.50  0.00
 2022 330    86     3  18.0  -6.0 10.00  0.00  0.00  0.00   0.0  0.00 0.000  0.00    43    40     2     0     0     0     0  0.00     0     0     0     0     0 .0010   0.0     0     0   150   -99  0.08  0.00   2.9  99.9  1.00  0.00  0.00  0.00  0.00  0.00  0.00   2.0  0.00  0.00  0.50  0.00
 2022 331    87     4  16.3  -6.0 10.28  0.28  0.02  0.00   0.0  0.03 0.003  0.03    43    26     3    13     9     4     0  0.00     0     0     0     0     0 .0027   0.0     0     0   150   350  0.10  0.75   2.8  99.9  1.00  0.00  0.00  0.00  0.00  0.00  0.00   0.1  0.00  0.00  0.50  0.32
 2022 332    88     5  16.1  -6.0 10.57  0.57  0.03  0.32   0.6  0.03 0.003  0.04    43    23     4    15    10     5     0  0.00     0     0     1     0 0.130 .0052   3.4     0     0   150   347  0.12  0.67   2.9  42.7  0.15  1.00  0.85  0.88  0.01  0.01  0.01   0.2  0.00  0.00  0.50  0.32
 2022 333    89     6  18.1  -6.0 10.88  0.88  0.03  0.33   0.7  0.04 0.004  0.04    43    20     5    19    12     7     0  0.00     0     0     1     0 0.278 .0090   6.1     0     0   150   347  0.14  0.67   4.1  51.0  0.18  1.00  0.82  0.86  0.15  0.15  0.15   0.2  0.00  0.00  0.50  0.32
 2022 334    90     7  18.5  -6.0 11.21  1.21  0.04  0.39   0.9  0.05 0.005  0.06    44    14     6    24    15     9     0  0.00     0     0     2     0 0.452 .0138   8.1     0     0   150   346  0.16  0.68   5.3  57.8  0.25  1.00  0.75  0.81  0.28  0.28  0.28   0.2  0.00  0.00  0.50  0.32
 2022 335    91     8  19.2  -6.0 11.54  1.54  0.04  0.34   1.0  0.06 0.006  0.06    45    10     8    27    17    10     0  0.00     0     0     2     0 0.669 .0199   7.4     0     0   150   345  0.19  0.69   6.6  55.5  0.27  1.00  0.73  0.79  0.42  0.42  0.42   0.3  0.00  0.00  0.50  0.32
 2022 336    92     9  23.0  -6.0 11.94  1.94  0.05  0.35   1.2  0.06 0.006  0.07    45     9     8    28    18    11     0  0.00     0     0     2     0 0.916 .0286   7.2     0     0   150   344  0.22  0.69   8.2  59.4  0.30  1.00  0.70  0.77  0.46  0.46  0.46   0.7  0.00  0.20  0.50  0.32
 2022 337    93    10  23.0  -6.0 12.17  2.17  0.05  0.41   1.3  0.06 0.006  0.07    46     9     8    29    18    11     0  0.00     0     0     2     0 1.177 .0379   7.2     0     0   150   343  0.24  0.69   9.7  74.0  0.33  1.00  0.67  0.74  0.43  0.43  0.43   1.2  0.00  0.20  0.50  0.32
 2022 338    94    11  22.0  -6.0 12.36  2.36  0.05  0.45   1.4  0.06 0.006  0.07    47     9     9    30    19    11     0  0.00     0     0     2     0 1.446 .0471   7.2     0     0   150   342  0.27  0.70  11.2  88.3  0.34  1.00  0.66  0.74  0.39  0.39  0.39   1.4  0.00  0.13  0.50  0.32
 2022 339    95    12  22.2  -6.0 12.56  2.56  0.05  1.17   1.5  0.07 0.007  0.07    49     9     9    31    20    12     0  0.00     0     0     2     0 1.446 .0568   6.3     0     0   188   342  0.30  0.73  12.8  99.9  0.83  0.33  0.17  0.36  0.35  0.35  0.35   1.4  0.00  0.15  0.50  0.32
 2022 340    96    13  19.7  -6.0 12.73  2.73  0.05  1.47   1.4  0.07 0.007  0.08    50     9     9    32    21    12     0  0.00     0     0     2     0 1.446 .0656   5.5     0     0   223   341  0.32  0.73  15.9  99.9  1.17  0.00  0.00  0.10  0.31  0.31  0.31   1.3  0.00  0.00  0.50  0.32
 2022 341    97    14  20.0  -6.0 12.90  2.90  0.05  1.15   1.9  0.07 0.007  0.08    52     9     9    34    22    12     0  0.00     0     0     2     0 1.446 .0747   4.8     0     0   249   340  0.34  0.74  16.8  99.9  0.75  0.50  0.25  0.42  0.28  0.28  0.28   1.4  0.00  0.00  0.50  0.33
 2022 342    98    15  20.8  -6.0 13.08  3.08  0.06  0.54   2.0  0.08 0.008  0.08    53     9    10    35    22    13     0  0.00     0     0     2     0 1.762 .0845   5.2     0     0   249   339  0.36  0.70  17.2  99.9  0.33  1.00  0.67  0.74  0.25  0.25  0.25   1.3  0.00  0.05  0.50  0.33
 2022 343    99    16  18.0  -6.0 13.24  3.24  0.06  0.53   2.2  0.08 0.008  0.09    55     9    10    36    23    13     0  0.00     0     0     2     0 2.087 .0933   5.5     0     0   249   338  0.37  0.70  18.0  99.9  0.32  1.00  0.68  0.76  0.23  0.23  0.23   1.6  0.00  0.00  0.50  0.33
 2022 344   100    17  17.0  -6.0 13.39  3.39  0.06  0.54   2.5  0.08 0.008  0.09    57     9    11    37    24    14     0  0.00     0     0     2     0 2.422 0.102   5.7     0     0   249   336  0.39  0.70  18.8  99.9  0.31  1.00  0.69  0.76  0.20  0.20  0.20   1.6  0.00  0.00  0.50  0.33
 2022 345   101    18  16.2  -6.0 13.53  3.53  0.06  0.60   2.8  0.08 0.008  0.09    59     9    11    39    25    14     0  0.00     0     0     2     0 2.769 0.111   5.9     0     0   249   335  0.40  0.70  19.6  99.9  0.34  1.00  0.66  0.74  0.18  0.18  0.18   1.5  0.00  0.00  0.50  0.33
 2022 346   102    19  16.1  -6.0 13.67  3.67  0.06  0.65   3.1  0.09 0.009  0.10    61     9    12    41    26    15     0  0.00     0     0     2     0 3.129 0.120   6.0     0     0   249   334  0.41  0.70  20.4  99.9  0.36  1.00  0.64  0.73  0.16  0.16  0.16   1.5  0.00  0.00  0.50  0.33
 2022 347   103    20  15.1  -6.0 13.80  3.80  0.07  0.75   3.5  0.09 0.009  0.10    64     9    12    43    27    16     0  0.00     0     0     3     0 3.505 0.128   6.1     0     0   249   333  0.42  0.71  65.7  99.9  0.41  1.00  0.59  0.69  0.14  0.14  0.14   1.3  0.00  0.00  0.50  0.33
 2022 348   104    21  15.2  -6.0 13.94  3.94  0.08  1.89  10.0  0.11 0.011  0.12    73     9    14    50    32    18     0  0.00     0     0     2     0 3.505 0.138   4.9     0     0   284   331  0.43  0.76  48.7  99.9  1.78  0.00  0.00  0.00  0.12  0.12  0.12   1.4  0.00  0.00  0.50  0.33
 2022 349   105    22  14.6  -6.0 21.12  4.07  0.09  1.94  11.8  0.13 0.013  0.14    83     9    15    59    38    21     0  0.00     0     0     2     0 3.505 0.148   4.0     0     0   318   329  0.44  0.76  34.3  99.9  1.83  0.00  0.00  0.00  0.09  0.09  0.09   1.2  0.00  0.00  0.49  0.33
 2022 350   106    23  12.5  -6.0 21.32  4.17  0.10  1.99   7.8  0.13 0.014  0.15    89     9    17    64    41    24     0  0.00     0     0     3     0 4.598 0.157   5.2     0     0   349   327  0.45  0.76  28.4  99.9  1.98  0.00  0.00  0.00  0.07  0.07  0.07   1.2  0.00  0.00  0.41  0.33
 2022 351   107    24  14.9  -6.0 21.57  4.30  0.11  2.02  14.3  0.15 0.016  0.17   101     9    19    74    46    28     0  0.00     0     0     5     0 5.911 0.170   6.1     0     0   385   325  0.47  0.76  26.5  99.9  1.09  0.00  0.00  0.16  0.06  0.06  0.06   0.7  0.00  0.00  0.41  0.33
 2022 352   108    25  15.5  -6.0 21.81  4.44  0.12  1.94  15.5  0.17 0.018  0.19   114     9    21    84    52    32     0  0.00     0     0     6     0 7.282 0.184   6.7     0     0   422   323  0.48  0.76  26.7  92.2  1.01  0.00  0.00  0.22  0.10  0.10  0.10   0.7  0.00  0.00  0.41  0.33
 2022 353   109    26  14.8  -6.0 22.02  4.57  0.13  1.70  15.5  0.19 0.020  0.21   126     9    23    95    59    36     0  0.00     0     0     7     0 8.594 0.199   7.0     0     0   452   321  0.49  0.76  27.0  83.6  0.90  0.20  0.10  0.31  0.12  0.12  0.12   0.8  0.00  0.00  0.40  0.33
 2022 354   110    27  16.6  -6.0 22.26  4.71  0.15  1.74  16.0  0.21 0.023  0.23   139     9    25   106    65    41     0  0.00     0     0     8     0 10.01 0.218   7.3     0     0   489   319  0.50  0.76  27.5  81.7  0.92  0.16  0.08  0.29  0.12  0.12  0.12   0.9  0.00  0.00  0.40  0.33
 2022 355   111    28  15.2  -6.0 22.43  4.85  0.16  1.56  17.5  0.24 0.026  0.26   155     9    28   119    74    45     0  0.00     0     0     7     0 10.01 0.238   6.0     0     0   514   318  0.51  0.76  27.9  69.2  0.82  0.37  0.18  0.37  0.11  0.11  0.11   0.9  0.00  0.00  0.40  0.33
 2022 356   112    29  15.3  -6.0 22.57  4.98  0.18  1.48  18.9  0.27 0.029  0.30   172     9    31   133    84    49     0  0.00     0     0     7     0 10.01 0.259   5.1     0     0   535   317  0.52  0.75  28.2  61.4  0.77  0.47  0.23  0.41  0.10  0.10  0.10   0.8  0.00  0.00  0.40  0.33
 2022 357   113    30  15.9  -6.0 22.70  5.12  0.20  1.40  19.7  0.30 0.033  0.33   190     9    34   148    94    54     0  0.00     0     0     6     0 10.01 0.283   4.4     0     0   555   316  0.54  0.75  28.6  55.6  0.74  0.52  0.26  0.43  0.11  0.11  0.11   0.8  0.00  0.00  0.40  0.33
 2022 358   114    31  16.2  -6.0 22.82  5.26  0.22  1.35  21.1  0.33 0.036  0.36   208     9    37   163   104    59     0  0.00     0     0     7     0 10.67 0.311   4.2     0     0   573   315  0.55  0.75  29.0  50.6  0.71  0.57  0.29  0.45  0.12  0.12  0.12   0.8  0.00  0.00  0.40  0.33
 2022 359   115    32  17.8  -6.0 22.92  5.42  0.24  1.25  21.4  0.36 0.040  0.39   227     9    40   178   113    65     0  0.00     0     0     7     0 11.40 0.343   4.1     0     0   588   313  0.56  0.74  29.4  45.3  0.66  0.68  0.34  0.49  0.11  0.11  0.11   0.9  0.00  0.00  0.47  0.33
 2022 360   116    33  17.0  -6.0 23.04  5.57  0.26  1.23  22.9  0.39 0.043  0.43   246     9    43   194   124    71     0  0.00     0     0     8     0 12.10 0.377   3.9     0     0   606   312  0.58  0.74  29.8  42.7  0.64  0.73  0.36  0.51  0.10  0.10  0.10   1.0  0.00  0.00  0.47  0.33
 2022 361   117    34  17.5  -6.0 23.14  5.72  0.27  1.20  23.8  0.42 0.047  0.47   267     9    47   211   135    77     0  0.00     0     0     8     0 12.82 0.415   3.8     0     0   621   311  0.59  0.74  30.2  40.2  0.61  0.77  0.39  0.53  0.09  0.09  0.09   1.0  0.00  0.00  0.50  0.33
 2022 362   118    35  16.6  -6.0 23.55  5.86  0.29  1.96  26.0  0.46 0.052  0.51   290     9    51   231   147    83     0  0.00     0     0     8     0 13.51 0.454   3.7     0     0   682   310  0.60  0.77  30.5  63.2  0.99  0.03  0.01  0.24  0.07  0.07  0.07   1.0  0.00  0.00  0.50  0.33
 2022 363   119    36  17.2  -6.0 23.97  6.01  0.30  2.01  12.4  0.47 0.054  0.53   300     9    52   240   153    86     0  0.00     0     0     9     0 14.23 0.498   3.6     0     0   745   309  0.61  0.77  31.3  99.9  2.19  0.00  0.00  0.00  0.06  0.06  0.06   2.0  0.00  0.00  0.50  0.33
 2022 364   120    37  18.6  -6.0 24.04  6.18  0.32  1.18  26.0  0.50 0.057  0.56   321     9    56   256   162    94     0  0.00     0     0    11     0 17.01 0.547   4.3     0     0   756   308  0.63  0.74  31.8  37.6  0.58  0.84  0.42  0.55  0.05  0.05  0.05   1.1  0.00  0.00  0.50  0.33
 2022 365   121    38  17.8  -6.0 24.09  6.33  0.33  1.12  27.3  0.53 0.060  0.59   342     9    61   273   172   101     0  0.00     0     0    13     0 19.90 0.597   4.9     0     0   763   307  0.64  0.74  32.1  34.9  0.55  0.90  0.45  0.58  0.04  0.04  0.04   1.3  0.00  0.00  0.50  0.33
 2023   1   122    39  16.6  -6.0 24.21  6.48  0.35  1.33  29.5  0.57 0.066  0.64   369     9    65   295   187   108     0  0.00     0     0    13     0 19.90 0.647   4.3     0     0   782   305  0.65  0.75  32.3  40.2  0.64  0.72  0.36  0.51  0.04  0.04  0.04   1.3  0.00  0.00  0.50  0.33
 2023   2   123    40  15.1  -6.0 24.43  6.61  0.38  1.61  31.3  0.62 0.071  0.69   397     9    70   319   203   116     0  0.00     0     0    12     0 19.90 0.696   3.8     0     0   814   304  0.66  0.76  32.5  47.6  0.77  0.45  0.23  0.41  0.03  0.03  0.03   1.0  0.00  0.00  0.50  0.33
 2023   3   124    41  13.8  -6.0 24.46  6.73  0.39  1.15  32.5  0.65 0.076  0.73   423     9    75   340   215   125     0  0.00     0     0    15     0 22.79 0.744   4.3     0     0   819   303  0.67  0.74  71.2  72.7  0.55  0.91  0.45  0.58  0.02  0.02  0.02   1.0  0.00  0.00  0.46  0.33
 2023   4   125    42  16.3  -6.0 24.88  6.87  0.44  2.11  64.5  0.75 0.087  0.84   482     9    83   391   248   143     0  0.00     0     0    15     0 22.79 0.805   3.7     0     0   881   302  0.68  0.78  54.1  45.8  1.85  0.00  0.00  0.00  0.02  0.02  0.02   1.3  0.00  0.00  0.46  0.33
 2023   5   126    43  17.6  -6.0 25.33  7.02  0.48  2.12  74.3  0.86 0.101  0.96   550     9    92   449   286   163     0  0.00     0     0    15     0 22.79 0.878   3.3     0     0   950   300  0.69  0.78  45.7  33.6  1.79  0.00  0.00  0.00  0.01  0.01  0.01   1.2  0.00  0.00  0.49  0.33
 2023   6   127    44  18.3  -6.0 25.81  7.18  0.52  2.13  81.1  0.97 0.115  1.08   622     9   103   511   325   186     0  0.00     0     0    17     0 24.66 0.963   3.4     0     0  1021   298  0.70  0.79  42.4  28.9  1.39  0.00  0.00  0.00  0.01  0.01  0.01   0.9  0.00  0.00  0.49  0.33
 2023   7   128    45  17.7  -6.0 26.26  7.34  0.56  2.11  84.2  1.08 0.129  1.21   697     9   114   575   365   210     0  0.00     0     0    20     0 26.47 1.054   3.4     0     0  1089   297  0.72  0.78  41.4  27.3  1.30  0.00  0.00  0.00  0.02  0.02  0.02   0.9  0.00  0.00  0.49  0.32
 2023   8   129    46  17.3  -6.0 26.70  7.49  0.60  2.08  89.6  1.21 0.144  1.35   777     9   125   643   408   235     0  0.00     0     0    22     0 28.25 1.152   3.4     0     0  1154   295  0.73  0.78  40.5  25.1  1.18  0.00  0.00  0.09  0.03  0.03  0.03   0.8  0.00  0.00  0.49  0.32
 2023   9   130    47  16.6  -6.0 27.11  7.63  0.64  2.01  96.7  1.34 0.161  1.50   864     9   138   717   455   262     0  0.00     0     0    24     0 29.96 1.256   3.3     0     0  1217   294  0.74  0.78  39.6  22.1  0.98  0.04  0.02  0.25  0.04  0.04  0.04   0.8  0.00  0.00  0.49  0.32
 2023  10   131    48  17.2  -6.0 27.41  7.78  0.67  1.69  83.7  1.46 0.176  1.63   940     9   149   782   496   286     0  0.00     0     0    24     0 30.04 1.375   3.1     0     0  1262   294  0.75  0.77  38.9  20.7  0.84  0.32  0.16  0.36  0.06  0.06  0.06   0.9  0.00  0.00  0.49  0.32
 2023  11   132    49  17.9  -6.0 27.58  7.94  0.70  1.38  75.6  1.57 0.190  1.75  1008     9   160   839   531   308     0  0.00     0     0    24     0 30.04 1.508   2.8     0     0  1288   295  0.76  0.76  38.3  18.2  0.68  0.63  0.32  0.47  0.06  0.06  0.06   1.0  0.00  0.00  0.50  0.32
 2023  12   133    50  18.4  -6.0 27.70  8.10  0.72  1.25  71.4  1.67 0.202  1.87  1072     9   170   893   564   329     0  0.00     0     0    23     0 30.04 1.655   2.6     0     0  1304   295  0.77  0.75  37.9  17.3  0.61  0.77  0.39  0.53  0.05  0.05  0.05   1.0  0.00  0.00  0.50  0.32
 2023  13   134    51  16.6  -6.0 27.77  8.25  0.73  1.21  70.3  1.70 0.208  1.91  1120     9   181   931   586   346     0  0.00     0     0    37     0 44.58 1.797   4.0     0     0  1316   290  0.78  0.75  37.5  17.1  0.59  0.82  0.41  0.55  0.04  0.04  0.04   1.0  0.00  0.00  0.50  0.32
 2023  14   135    52  17.6  -6.0 27.83  8.40  0.73  1.16  67.4  1.73 0.213  1.95  1166     9   191   966   599   368     0  0.00     0     0    51     0 59.72 1.956   5.2     0     0  1324   289  0.80  0.75  37.1  16.6  0.56  0.88  0.44  0.57  0.04  0.04  0.04   2.0  0.00  0.00  0.50  0.32
 2023  15   136    53  16.9  -6.0 28.11  8.55  0.75  1.72  69.6  1.81 0.223  2.03  1222     9   200  1014   627   387     0  0.00     0     0    54     0 66.30 2.117   5.3     0     0  1367   288  0.81  0.78  36.7  24.7  0.83  0.35  0.17  0.36  0.03  0.03  0.03   1.8  0.00  0.00  0.50  0.32
 2023  16   137    54  17.0  -6.0 28.16  8.70  0.76  1.15  69.0  1.84 0.229  2.07  1269     9   210  1050   641   409     0  0.00     0     0    66     0 81.77 2.286   6.3     0     0  1374   288  0.82  0.75  36.4  16.5  0.55  0.90  0.45  0.58  0.02  0.02  0.02   1.3  0.00  0.00  0.50  0.32
 2023  17   138    55  14.1  -6.0 28.52  8.82  0.77  2.11  38.2  1.91 0.237  2.15  1304     9   215  1080   665   415     0  0.00     0     0    61     0 81.77 2.435   5.6     0     0  1428   287  0.83  0.79  36.7  58.6  1.90  0.00  0.00  0.00  0.02  0.02  0.02   2.0  0.00  0.00  0.48  0.32
 2023  18   139    56  13.8  -6.0 28.57  8.94  0.78  1.20  71.0  1.97 0.246  2.22  1358     9   225  1124   690   435     0  0.00     0     0    66     0 91.12 2.583   5.9     0     0  1435   286  0.84  0.75  36.2  17.5  0.57  0.86  0.43  0.56  0.01  0.01  0.01   1.0  0.00  0.00  0.44  0.32
 2023  19   140    57  14.2  -6.0 28.59  9.06  0.79  1.13  67.1  2.03 0.254  2.29  1409     9   235  1165   712   453     0  0.00     0     0    71     0 100.8 2.743   6.1     0     0  1438   285  0.85  0.75  35.7  16.9  0.53  0.94  0.47  0.59  0.01  0.01  0.01   1.5  0.00  0.00  0.41  0.31
 2023  20   141    58  13.8  -6.0 28.59  9.18  0.79  0.96  64.9  2.06 0.259  2.32  1450     9   245  1196   724   472     0  0.00     0     0    83     0 117.3 2.905   6.9     0     0  1438   284  0.85  0.74  87.0  36.5  0.45  1.00  0.55  0.65  0.01  0.01  0.01   1.5  0.00  0.00  0.37  0.31
 2023  21   142    59  14.1  -6.0 28.96  9.31  0.82  2.14 146.1  2.24 0.284  2.52  1577     9   263  1306   792   514     0  0.00     0     0    86     0 124.0 3.078   6.6     0     0  1493   283  0.86  0.80  70.0  28.9  2.97  0.00  0.00  0.00  0.00  0.00  0.00   1.6  0.00  0.00  0.35  0.31
 2023  22   143    60  14.1  -6.0 29.32  9.43  0.85  2.15 154.7  2.44 0.311  2.75  1715     9   282  1424   868   556     0  0.00     0     0    87     0 128.8 3.263   6.1     0     0  1548   281  0.87  0.80  60.1  23.3  3.00  0.00  0.00  0.00  0.00  0.00  0.00   1.3  0.00  0.00  0.32  0.31
 2023  23   144    61  12.6  -6.0 29.32  9.54  0.87  2.15 135.1  2.64 0.337  2.97  1839     9   298  1532   941   591     0  0.00     0     0    83     0 128.8 3.439   5.4     0     0  1548   280  0.88  0.80  57.0  26.4  3.37  0.00  0.00  0.00  0.00  0.00  0.00   1.5  0.00  0.00  0.24  0.31
 2023  24   145    62  13.1  -6.0 29.32  9.65  0.89  2.15 164.5  2.87 0.368  3.24  1990     9   317  1664  1028   635     0  0.00     0     0    81     0 128.8 3.634   4.9     0     0  1548   279  0.89  0.80  54.3  20.4  2.63  0.00  0.00  0.00  0.00  0.00  0.00   1.2  0.00  0.00  0.18  0.31
 2023  25   146    63  14.5  -6.0 29.32  9.78  0.91  2.15 169.6  3.10 0.401  3.51  2145     9   338  1799  1118   681     0  0.00     0     0    79     0 128.8 3.864   4.4     0     0  1548   278  0.90  0.80  51.6  18.0  2.15  0.00  0.00  0.00  0.00  0.00  0.00   1.1  0.00  0.00  0.16  0.31
 2023  26   147    64  15.7  -6.0 29.32  9.92  0.92  2.15 159.5  3.33 0.431  3.76  2292     9   356  1927  1200   727     0  0.00     0     0    77     0 128.8 4.129   4.0     0     0  1548   277  0.91  0.80  49.1  17.8  1.95  0.00  0.00  0.00  0.00  0.00  0.00   1.2  0.00  0.00  0.00  0.00
 2023  27   148    65  12.1  -6.0 29.32 10.02  0.93  2.15 129.5  3.51 0.456  3.96  2411     9   371  2031  1260   771     0  0.00     0     0    75     0 128.8 4.345   3.7     0     0  1548   278  0.92  0.80  47.2  22.5  2.30  0.00  0.00  0.00  0.00  0.00  0.00   1.6  0.00  0.00  0.00  0.00
 2023  28   149    66  15.6  -6.0 29.32 10.16  0.94  2.15 145.9  3.68 0.481  4.16  2541     9   388  2144  1327   818     0  0.00     0     0    78     0 133.2 4.635   3.6     0     0  1548   278  0.93  0.81  45.1  17.6  1.63  0.00  0.00  0.00  0.00  0.00  0.00   1.4  0.00  0.00  0.00  0.00
 2023  29   150    67  14.4  -6.0 29.32 10.28  0.95  2.15 178.5  3.90 0.513  4.41  2701     9   408  2284  1408   876     0  0.00     0     0    83     0 137.3 4.915   3.7     0     0  1548   277  0.94  0.81  42.4  13.8  1.14  0.00  0.00  0.13  0.00  0.00  0.00   1.2  0.00  0.00  0.00  0.00
 2023  30   151    68  14.6  -6.0 30.22 10.41  0.96  2.15 160.9  4.08 0.541  4.63  2846     9   426  2411  1481   930     0  0.00     0     0    88     0 141.3 5.212   3.7     0     0  1548   276  0.95  0.81  40.3  14.5  1.00  0.00  0.00  0.23  0.00  0.00  0.00   1.3  0.00  0.00  0.00  0.00
 2023  31   152    69  14.5  -6.0 30.91 10.54  0.96  1.70 131.3  4.23 0.564  4.80  2962     9   442  2511  1537   974     0  0.00     0     0    91     0 145.4 5.522   3.6     0     0  1548   275  0.96  0.79  38.7  13.5  0.79  0.42  0.21  0.39  0.00  0.00  0.00   1.7  0.00  0.00  0.00  0.00
 2023  32   153    70  13.4  -6.0 31.55 10.65  0.96  2.00 116.0  4.36 0.585  4.95  3065     9   455  2601  1586  1015     0  0.00     0     0    93     0 149.2 5.817   3.6     0     0  1548   275  0.96  0.81  37.5  18.0  0.93  0.14  0.07  0.28  0.00  0.00  0.00   2.0  0.00  0.00  0.00  0.00
 2023  33   154    71  15.9  -6.0 32.30 10.79  0.96  1.19  95.3  4.38 0.590  4.97  3124     9   468  2648  1615  1032     0  0.00     0     0   117     0 176.0 6.178   4.4     0     0  1548   271  0.98  0.77  36.6  12.0  0.55  0.89  0.45  0.57  0.00  0.00  0.00   2.0  0.00  0.00  0.00  0.00
 2023  34   155    72  16.9  -6.0 33.11 10.94  0.96  1.04  82.6  4.37 0.594  4.97  3172     9   479  2684  1636  1048     0  0.00     0     0   138     0 203.1 6.572   5.1     0     0  1548   267  0.99  0.77  82.1  26.1  0.48  1.00  0.52  0.63  0.00  0.00  0.00   2.0  0.00  0.00  0.00  0.00
 2023  35   156    73  16.9  -6.0 33.91 11.09  0.97  2.15 177.0  4.57 0.626  5.19  3331     9   497  2825  1712  1113     0  0.00     0     0   143     0 207.9 6.977   5.1     0     0  1548   267  1.00  0.82  72.9  22.3  3.58  0.00  0.00  0.00  0.00  0.00  0.00   2.0  0.00  0.00  0.00  0.00
 2023  36   157    74  18.1  -6.0 34.78 11.25  0.97  2.15 177.9  4.75 0.658  5.41  3491     9   515  2967  1785  1182     0  0.00     0     0   149     0 213.1 7.428   5.0     0     0  1548   266  1.01  0.83  67.5  20.1  4.35  0.00  0.00  0.00  0.00  0.00  0.00   2.0  0.00  0.00  0.00  0.00
 2023  37   158    75  16.7  -6.0 35.57 11.39  0.98  2.15 171.3  4.92 0.689  5.61  3646     9   532  3105  1855  1250     0  0.00     0     0   155     0 217.8 7.859   5.0     0     0  1548   265  1.02  0.83  65.1  20.9  4.64  0.00  0.00  0.00  0.00  0.00  0.00   2.0  0.00  0.00  0.00  0.00
 2023  38   159    76  16.2  -6.0 36.34 11.53  0.98  2.15 186.5  5.11 0.723  5.83  3815     9   551  3256  1930  1326     0  0.00     0     0   162     0 222.5 8.290   5.0     0     0  1548   265  1.03  0.83  62.4  18.7  3.96  0.00  0.00  0.00  0.00  0.00  0.00   2.0  0.00  0.00  0.00  0.00
 2023  39   160    77  18.1  -6.0 37.21 11.69  0.98  2.15 192.4  5.26 0.758  6.02  3989     9   569  3411  2006  1405     0  0.00     0     0   171     0 227.7 8.790   5.0     0     0  1502   262  1.04  0.84  59.6  16.4  3.08  0.00  0.00  0.00  0.00  0.00  0.00   2.0  0.00  0.00  0.00  0.00
 2023  40   161    78  15.1  -6.0 37.93 11.82  0.98  2.15 194.9  5.42 0.794  6.21  4166     9   587  3570  2082  1489     0  0.00     0     0   180     0 232.0 9.219   5.0     0     0  1465   260  1.05  0.84  56.8  16.3  2.43  0.00  0.00  0.00  0.00  0.00  0.00   2.0  0.00  0.00  0.00  0.00
 2023  41   162    79  17.1  -6.0 38.74 11.97  0.99  2.15 172.1  5.54 0.825  6.37  4322     9   603  3710  2147  1563     0  0.00     0     0   186     0 237.0 9.723   5.0     0     0  1424   258  1.06  0.84  54.4  16.9  2.04  0.00  0.00  0.00  0.00  0.00  0.00   2.0  0.00  0.00  0.00  0.00
 2023  42   163    80  14.0  -6.0 39.41 12.09  0.99  2.15  62.4  5.59 0.839  6.43  4376     9   608  3759  2166  1594     0  0.00     0     0   179     0 241.1 10.14   4.8     0     0  1392   258  1.07  0.85  54.0  50.4  4.90  0.00  0.00  0.00  0.00  0.00  0.00   2.0  0.00  0.00  0.00  0.00
 2023  43   164    81  15.7  -6.0 40.17 12.23  0.99  2.15 175.6  5.71 0.871  6.58  4536     9   624  3903  2231  1673     0  0.00     0     0   188     0 245.7 10.62   4.8     0     0  1357   256  1.08  0.85  51.7  16.4  1.56  0.00  0.00  0.00  0.00  0.00  0.00   2.0  0.00  0.00  0.00  0.00
 2023  44   165    82  13.9  -6.0 40.86 12.23  0.99  2.64 146.2  5.64 0.888  6.53  4673     9   637  4028  2264  1753     0  0.00     0     0   236    11 245.7 11.06   5.9     0     0  1327   249  1.09  0.85  50.4  24.9  1.98  0.00  0.00  0.00  0.00  0.00  0.00   2.0  0.00  0.00  0.00  0.00
 2023  45   166    83  13.7  -6.0 41.55 12.23  0.99  2.64 217.9  5.58 0.915  6.50  4878     9   655  4214  2261  1932     0  0.00     0     0   302    21 245.7 11.49   7.2     0     0  1298   247  1.10  0.85  48.1  15.8  1.17  0.00  0.00  0.10  0.00  0.00  0.00   2.0  0.00  0.00  0.00  0.00
 2023  46   167    84  14.2  -6.0 42.25 12.23  0.99  2.53 214.3  5.51 0.942  6.46  5079     9   674  4397  2249  2116     0  0.00     0     0   368    32 245.7 11.96   8.4     0     0  1269   245  1.11  0.85  49.8  15.9  0.96  0.09  0.04  0.26  0.00  0.00  0.00   2.0  0.00  0.00  0.00  0.00
 2023  47   168    85  14.1  -6.0 42.96 12.23  0.98  2.64 247.5  5.45 0.975  6.43  5312     9   694  4610  2237  2330     0  0.00     0     0   443    43 245.7 12.43   9.7     0     0  1241   244  1.12  0.86  46.9  13.6  1.34  0.00  0.00  0.00  0.00  0.00  0.00   2.0  0.00  0.00  0.00  0.00
 2023  48   169    86  12.8  -6.0 43.60 12.23  0.98  2.64 178.3  5.39 0.997  6.39  5481     9   708  4764  2227  2484     0  0.00     0     0   499    53 245.7 12.88  10.6     0     0  1217   242  1.13  0.86  91.8  37.5  1.19  0.00  0.00  0.09  0.00  0.00  0.00   2.0  0.00  0.00  0.00  0.00
 2023  49   170    87  17.4  -6.0 44.47 12.23  0.98  2.64 158.7  5.31 1.015  6.33  5630     9   720  4902  2211  2624     0  0.00     0     0   554    66 245.7 13.49  11.5     0     0  1185   240  1.14  0.87  98.7  41.7  7.33  0.00  0.00  0.00  0.00  0.00  0.00   2.0  0.00  0.00  0.00  0.00
 2023  50   171    88  18.8  -6.0 45.41 12.23  0.98  2.64 139.1  5.23 1.029  6.26  5761     9   730  5023  2195  2747     0  0.00     0     0   605    81 245.7 14.17  12.2     0     0  1151   238  1.15  0.87  85.6  40.1  9.90  0.00  0.00  0.00  0.00  0.00  0.00   2.0  0.00  0.00  0.00  0.00
 2023  51   172    89  18.3  -6.0 46.33 12.23  0.98  2.64 171.3  5.15 1.049  6.20  5924     9   742  5173  2179  2899     0  0.00     0     0   665    96 245.7 14.84  13.1     0     0  1119   236  1.16  0.88  80.5  30.9  8.22  0.00  0.00  0.00  0.00  0.00  0.00   2.0  0.00  0.00  0.00  0.00
 2023  52   173    90  16.3  -6.0 47.14 12.23  0.98  2.64 158.2  5.08 1.067  6.14  6074     9   752  5313  2166  3039     0  0.00     0     0   719   108 245.7 15.44  13.8     0     0  1092   234  1.17  0.88  79.4  34.8  9.55  0.00  0.00  0.00  0.00  0.00  0.00   2.0  0.00  0.00  0.00  0.00
 2023  53   174    91  15.3  -6.0 47.91 12.23  0.98  2.64 260.3  5.01 1.102  6.11  6322     9   770  5543  2152  3271     0  0.00     0     0   801   121 245.7 16.02  14.8     0     0  1067   233  1.18  0.89  76.3  20.7  6.00  0.00  0.00  0.00  0.00  0.00  0.00   2.0  0.00  0.00  0.00  0.00
 2023  54   175    92  16.1  -6.0 48.72 12.23  0.98  2.64 261.3  4.94 1.137  6.08  6571     9   786  5776  2138  3505     0  0.00     0     0   883   134 245.7 16.64  15.7     0     0  1042   231  1.19  0.89  73.1  19.1  5.19  0.00  0.00  0.00  0.00  0.00  0.00   2.0  0.00  0.00  0.00  0.00
 2023  55   176    93  13.1  -6.0 49.37 12.23  0.98  2.64 168.0  4.88 1.158  6.04  6731     9   797  5926  2127  3587     0  0.00    68    68   939   144 245.7 17.16  16.2     0     0  1022   230  1.20  0.89  71.4  31.0  6.68  0.00  0.00  0.00  0.00  0.00  0.00   2.0  0.00  0.00  0.00  0.00
 2023  56   177    94  15.6  -6.0 50.72 12.23  0.97  2.64 165.2  4.82 1.178  6.00  6889     9   806  6074  2111  3652     0  0.00   154   136   996   157 245.7 17.78  16.8     0     0   999   228  1.21  0.90  69.4  29.1  5.50  0.00  0.00  0.00  0.00  0.00  0.00   2.0  0.00  0.00  0.00  0.00
 2023  57   178    95  17.0  -6.0 54.63 12.23  0.97  2.64 268.1  4.76 1.210  5.97  7146     9   821  6316  2103  3764     0  0.00   284   246  1078   166 245.7 18.46  17.5     0     0   975   227  1.21  0.90  65.2  16.5  2.81  0.00  0.00  0.00  0.00  0.00  0.00   2.0  0.00  0.00  0.00  0.00
 2023  58   179    96  16.0  -6.0 58.33 12.23  0.97  2.64 267.8  4.71 1.243  5.96  7404     9   834  6561  2095  3863     0  0.00   428   357  1159   174 245.7 19.12  18.2     0     0   953   225  1.21  0.91  61.1  15.6  2.17  0.00  0.00  0.00  0.00  0.00  0.00   2.0  0.00  0.00  0.00  0.00
 2023  59   180    97  16.1  -6.0 66.82 12.23  0.97  2.64 236.7  4.66 1.271  5.93  7633     9   844  6780  2087  3947     0  0.00   564   457  1234   183 245.7 19.79  18.7     0     0   932   223  1.21  0.92  57.5  16.5  1.89  0.00  0.00  0.00  0.00  0.00  0.00   2.0  0.00  0.00  0.00  0.00
 2023  60   181    98  12.6  -6.0 70.42 12.23  0.97  2.64  80.9  4.62 1.277  5.90  7711     9   847  6856  2081  3956     0  0.00   629   491  1263   189 245.7 20.33  18.9     0     0   916   222  1.21  0.94  56.3  52.2  4.85  0.00  0.00  0.00  0.00  0.00  0.00   2.0  0.00  0.00  0.00  0.00
 2023  61   182    99  14.6  -6.0 71.14 12.23  0.97  2.64 277.3  4.58 1.314  5.89  7982     9   855  7118  2073  4079     6  0.00   763   616  1344   197 245.7 20.95  19.4 14465 .0000   898   221  1.21  0.94  52.3  13.6  1.26  0.00  0.00  0.03  0.00  0.00  0.00   2.0  0.00  0.00  0.00  0.00
 2023  62   183   100  14.9  -6.0 71.87 12.23  0.97  2.50 268.3  4.53 1.350  5.88  8244     9   863  7372  2065  4163    21  0.00   917   748  1413   205 245.7 21.58  19.8 14465 .0001   880   219  1.21  0.95  48.3  12.0  0.95  0.11  0.05  0.27  0.00  0.00  0.00   2.0  0.00  0.00  0.00  0.00
 2023  63   184   101  14.5  -6.0 72.58 12.23  0.97  1.94 208.3  4.49 1.376  5.86  8446     9   870  7568  2057  4210    46  0.01  1041   861  1455   213 245.7 22.21  19.9 14465 .0003   863   218  1.21  0.94  45.1  11.1  0.73  0.54  0.27  0.44  0.00  0.00  0.00   2.0  0.00  0.00  0.00  0.00
 2023  64   185   102  15.5  -6.0 73.34 12.23  0.96  1.54 167.4  4.35 1.394  5.74  8609     9   876  7724  2007  4241    85  0.01  1144   971  1497   248 245.7 22.88  20.3 14465 .0006   846   217  1.21  0.93  42.4  10.1  0.58  0.84  0.42  0.55  0.00  0.00  0.00   2.0  0.00  0.00  0.00  0.00
 2023  65   186   103  16.9  -6.0 74.17 12.23  0.96  1.34 139.7  4.21 1.385  5.60  8744     9   881  7855  1957  4278   141  0.02  1196  1028  1606   282 245.7 23.62  21.6 14465 .0010   828   215  1.21  0.94  40.0   9.7  0.51  0.99  0.49  0.61  0.00  0.00  0.00   2.0  0.00  0.00  0.00  0.00
 2023  66   187   104  16.9  -6.0 75.00 12.23  0.96  1.51 122.2  4.08 1.376  5.46  8863     9   883  7972  1908  4316   212  0.03  1219  1098  1687   316 245.7 24.36  22.7 14465 .0015   810   214  1.21  0.95  90.4  28.3  0.57  0.86  0.43  0.56  0.00  0.00  0.00   2.0  0.00  0.00  0.00  0.00
 2023  67   188   105  18.4  -6.0 75.90 12.23  0.95  2.64 250.2  4.03 1.366  5.39  9111     9   885  8217  1897  4428   304  0.04  1261  1190  1850   327 245.7 25.18  24.4 14465 .0021   791   212  1.21  0.98  86.3  22.5  4.47  0.00  0.00  0.00  0.00  0.00  0.00   2.0  0.00  0.00  0.00  0.00
 2023  68   189   106  19.7  -6.0 76.87 12.23  0.95  2.64 272.4  3.97 1.355  5.33  9380     9   888  8484  1885  4538   421  0.05  1303  1307  2011   337 245.7 26.05  26.0 14465 .0029   772   211  1.21  0.98  81.6  19.1  5.91  0.00  0.00  0.00  0.00  0.00  0.00   2.0  0.00  0.00  0.00  0.00
 2023  69   190   107  19.4  -6.0 77.82 12.23  0.95  2.64 283.2  3.92 1.345  5.26  9660     9   890  8761  1874  4643   554  0.06  1343  1441  2166   348 245.7 26.91  27.6 14465 .0038   753   209  1.21  0.98  76.8  17.4  5.71  0.00  0.00  0.00  0.00  0.00  0.00   2.0  0.00  0.00  0.00  0.00
 2023  70   191   108  19.6  -6.0 78.78 12.23  0.95  2.64 278.8  3.86 1.335  5.20  9936     9   893  9035  1861  4729   708  0.08  1377  1595  2296   359 245.7 27.78  28.8 14465 .0049   736   207  1.21  0.98  72.0  16.5  4.97  0.00  0.00  0.00  0.00  0.00  0.00   2.0  0.00  0.00  0.00  0.00
 2023  71   192   109  22.8  -6.0 79.90 12.23  0.95  2.64 276.9  3.80 1.324  5.12 10210     9   895  9306  1846  4781   909  0.10  1398  1795  2380   372 245.7 28.80  29.6 14465 .0063   716   206  1.21  0.98  67.0  14.6  3.39  0.00  0.00  0.00  0.00  0.00  0.00   2.0  0.00  0.18  0.00  0.00
 2023  72   193   110  22.0  -6.0 80.34 12.23  0.94  2.64 282.4  3.74 1.313  5.05 10489     9   897  9583  1833  4823  1127  0.12  1416  2013  2450   384 245.7 29.78  30.4 14465 .0078   698   204  1.21  0.98  61.9  13.5  2.41  0.00  0.00  0.00  0.00  0.00  0.00   2.0  0.00  0.13  0.00  0.00
 2023  73   194   111  19.8  -6.0 80.69 12.23  0.94  2.64 289.1  3.71 1.304  5.01 10775     9   900  9866  1832  4880  1329  0.13  1436  2215  2536   388 245.7 30.67  31.1 14465 .0092   682   202  1.21  0.98  56.9  12.6  1.76  0.00  0.00  0.00  0.00  0.00  0.00   2.0  0.00  0.00  0.00  0.00
 2023  74   195   112  19.5  -6.0 81.02 12.23  0.94  2.65 253.9  3.68 1.295  4.97 11026     9   902 10115  1831  4915  1527  0.15  1449  2414  2590   392 245.7 31.55  31.6 14465 .0106   668   201  1.21  0.98  52.6  13.3  1.47  0.00  0.00  0.00  0.00  0.00  0.00   2.0  0.00  0.00  0.00  0.00
 2023  75   196   113  20.5  -6.0 81.38 12.23  0.94  2.65 232.4  3.65 1.285  4.94 11255     9   904 10343  1830  4927  1736  0.17  1454  2623  2613   396 245.7 32.47  31.8 14465 .0120   653   199  1.21  0.98  48.5  13.3  1.21  0.00  0.00  0.07  0.00  0.00  0.00   2.0  0.00  0.03  0.00  0.00
 2023  76   197   114  20.0  -6.0 81.72 12.23  0.94  2.65  99.3  3.62 1.276  4.90 11353     9   904 10440  1829  4846  1941  0.19  1424  2827  2509   400 245.7 33.38  31.0 14465 .0134   639   198  1.21  0.98 101.8  67.0  2.25  0.00  0.00  0.00  0.00  0.00  0.00   2.0  0.00  0.00  0.00  0.00
 2023  77   198   115  19.0  -6.0 82.05 12.23  0.94  2.65 270.2  3.59 1.268  4.86 11620     9   907 10705  1828  4895  2135  0.20  1443  3022  2584   404 245.7 34.24  31.6 14465 .0148   626   197  1.20  0.98 119.0  28.9  5.28  0.00  0.00  0.00  0.00  0.00  0.00   2.0  0.00  0.00  0.00  0.00
 2023  78   199   116  19.0  -6.0 82.38 12.23  0.93  2.65 283.4  3.57 1.259  4.83 11900     9   909 10983  1827  4955  2329  0.21  1464  3216  2671   408 245.7 35.10  32.4 14465 .0161   614   195  1.20  0.98  99.7  23.0  6.15  0.00  0.00  0.00  0.00  0.00  0.00   2.0  0.00  0.00  0.00  0.00
 2023  79   200   117  19.0  -6.0 82.71 12.23  0.93  2.65 280.6  3.54 1.251  4.79 12178     9   912 11258  1825  5012  2524  0.22  1485  3410  2756   411 245.7 35.97  33.1 14465 .0174   602   194  1.20  0.98  85.3  20.0  5.76  0.00  0.00  0.00  0.00  0.00  0.00   2.0  0.00  0.00  0.00  0.00
 2023  80   201   118  20.1  -6.0 83.06 12.23  0.93  2.65 277.7  3.52 1.243  4.76 12452     9   914 11530  1824  5059  2729  0.24  1502  3615  2827   416 245.7 36.89  33.7 14465 .0189   590   193  1.20  0.98  80.2  18.8  6.30  0.00  0.00  0.00  0.00  0.00  0.00   2.0  0.00  0.01  0.00  0.00
 2023  81   202   119  20.2  -6.0 83.41 12.23  0.93  2.65 277.3  3.49 1.235  4.72 12727     9   917 11801  1822  5105  2935  0.25  1519  3822  2896   420 245.7 37.81  34.3 14465 .0203   578   191  1.20  0.98  75.3  17.3  5.67  0.00  0.00  0.00  0.00  0.00  0.00   2.0  0.00  0.02  0.00  0.00
 2023  82   203   120  19.6  -6.0 83.75 12.23  0.93  2.65 287.9  3.46 1.227  4.69 13011     9   919 12084  1821  5163  3135  0.26  1541  4022  2982   424 245.7 38.71  35.0 14465 .0217   568   190  1.20  0.98  70.3  15.9  4.72  0.00  0.00  0.00  0.00  0.00  0.00   2.0  0.00  0.00  0.00  0.00
 2023  83   204   121  17.6  -6.0 84.05 12.23  0.93  2.65 307.2  3.44 1.220  4.66 13315     9   922 12385  1820  5251  3315  0.27  1572  4201  3108   427 245.7 39.52  36.0 14465 .0229   558   189  1.20  0.98  65.2  14.4  3.37  0.00  0.00  0.00  0.00  0.00  0.00   2.0  0.00  0.00  0.00  0.00
 2023  84   205   122  17.1  -6.0 84.35 12.23  0.93  2.65 294.5  3.42 1.213  4.63 13607     9   925 12673  1818  5333  3489  0.28  1602  4376  3225   431 245.7 40.31  36.8 14465 .0241   550   188  1.20  0.98  60.3  14.0  2.58  0.00  0.00  0.00  0.00  0.00  0.00   2.0  0.00  0.00  0.00  0.00
 2023  85   206   123  17.5  -6.0 84.65 12.23  0.93  2.65 296.6  3.40 1.207  4.60 13900     9   928 12964  1817  5413  3668  0.28  1632  4554  3341   434 245.7 41.12  37.7 14465 .0254   541   187  1.20  0.98  55.7  12.6  1.85  0.00  0.00  0.00  0.00  0.00  0.00   2.0  0.00  0.00  0.00  0.00
 2023  86   207   124  17.5  -6.0 84.95 12.23  0.92  2.65 230.1  3.38 1.200  4.58 14127     9   929 13189  1815  5446  3847  0.29  1644  4733  3391   438 245.7 41.93  38.1 14465 .0266   533   186  1.20  0.98  88.2  25.8  1.74  0.00  0.00  0.00  0.00  0.00  0.00   2.0  0.00  0.00  0.00  0.00
 2023  87   208   125  18.8  -6.0 85.27 12.23  0.92  2.65 276.2  3.35 1.194  4.55 14400     9   932 13460  1813  5503  4038  0.30  1664  4924  3474   442 245.7 42.80  38.7 14465 .0279   525   185  1.20  0.98  83.5  19.7  5.95  0.00  0.00  0.00  0.00  0.00  0.00   2.0  0.00  0.00  0.00  0.00
 2023  88   209   126  18.0  -6.0 85.59 12.23  0.92  2.65 285.6  3.33 1.187  4.52 14683     9   935 13740  1812  5572  4221  0.31  1690  5108  3574   446 245.7 43.64  39.4 14465 .0292   517   184  1.20  0.98  78.6  18.2  6.35  0.00  0.00  0.00  0.00  0.00  0.00   2.0  0.00  0.00  0.00  0.00
 2023  89   210   127  19.3  -6.0 85.92 12.23  0.91  2.65 281.5  3.16 1.180  4.34 14961     9   937 14016  1731  5641  4418  0.32  1729  5305  3704   496 245.7 44.54  40.7 14465 .0305   509   183  1.20  0.98  73.6  17.0  5.78  0.00  0.00  0.00  0.00  0.00  0.00   2.0  0.00  0.00  0.00  0.00
 2023  90   211   128  18.7  -6.0 86.24 12.23  0.90  2.65 307.2  2.99 1.174  4.16 15265     9   940 14317  1643  5735  4609  0.32  1779  5495  3869   551 245.7 45.42  42.3 14465 .0319   501   182  1.20  0.98  68.3  14.7  4.30  0.00  0.00  0.00  0.00  0.00  0.00   2.0  0.00  0.00  0.00  0.00
 2023  91   212   129  19.4  -6.0 86.58 12.23  0.88  2.65 294.5  2.81 1.167  3.98 15556     9   942 14605  1558  5815  4806  0.33  1823  5693  4013   604 245.7 46.33  43.6 14465 .0332   494   181  1.20  0.98  62.9  13.9  3.12  0.00  0.00  0.00  0.00  0.00  0.00   2.0  0.00  0.00  0.00  0.00
 2023  92   213   130  20.8  -6.0 86.94 12.23  0.87  2.65 282.8  2.64 1.160  3.80 15836     9   945 14883  1469  5876  5019  0.34  1860  5905  4133   659 245.7 47.31  44.9 14465 .0347   486   180  1.20  0.98  58.3  13.1  2.28  0.00  0.00  0.00  0.00  0.00  0.00   2.0  0.00  0.06  0.00  0.00
 2023  93   214   131  18.6  -6.0 87.26 12.23  0.85  2.65 264.8  2.45 1.154  3.60 16098     9   947 15142  1371  5941  5209  0.34  1901  6096  4262   719 245.7 48.19  46.3 14465 .0360   480   179  1.20  0.98  54.2  13.6  1.84  0.00  0.00  0.00  0.00  0.00  0.00   2.0  0.00  0.00  0.00  0.00
 2023  94   215   132  17.1  -6.0 87.55 12.23  0.82  2.65 284.2  2.28 1.149  3.43 16379     9   950 15420  1284  6031  5384  0.35  1950  6270  4419   772 245.7 49.00  47.7 14465 .0372   474   178  1.20  0.98  50.1  12.3  1.37  0.00  0.00  0.00  0.00  0.00  0.00   2.0  0.00  0.00  0.00  0.00
 2023  95   216   133  15.9  -6.0 87.83 12.23  0.80  2.65 272.7  2.13 1.144  3.27 16648     9   952 15688  1203  6123  5544  0.35  1997  6430  4575   821 245.7 49.75  49.1 14465 .0383   468   177  1.20  0.98  46.2  12.2  1.11  0.00  0.00  0.15  0.00  0.00  0.00   2.0  0.00  0.00  0.00  0.00
 2023  96   217   134  15.9  -6.0 88.10 12.23  0.78  2.19 230.9  1.98 1.139  3.12 16877     9   954 15914  1127  6183  5705  0.36  2032  6591  4686   867 245.7 50.51  50.2 14465 .0394   463   176  1.20  0.98  42.9  11.0  0.83  0.34  0.17  0.36  0.00  0.00  0.00   2.0  0.00  0.00  0.00  0.00
 2023  97   218   135  17.3  -6.0 88.40 12.23  0.75  1.76 180.3  1.84 1.130  2.97 17055     9   956 16091  1051  6175  5881  0.37  2056  6768  4732   928 245.7 51.34  51.0 14465 .0407   458   175  1.20  0.98  40.3  10.4  0.67  0.67  0.33  0.49  0.00  0.00  0.00   2.0  0.00  0.00  0.00  0.00
 2023  98   219   136  19.2  -6.0 88.73 12.23  0.72  1.45 145.3  1.65 1.120  2.77 17198     9   956 16233   946  6130  6077  0.37  2072  6964  4741  1007 245.7 52.25  51.8 14465 .0420   452   174  1.20  0.98  38.1   9.7  0.55  0.90  0.45  0.58  0.00  0.00  0.00   1.8  0.00  0.00  0.00  0.00
 2023  99   220   137  20.0  -6.0 89.08 12.23  0.67  1.29 123.7  1.44 1.110  2.55 17320     9   957 16354   833  6065  6281  0.38  2084  7168  4725  1091 245.7 53.21  52.6 14465 .0434   446   173  1.20  0.98  36.2   9.5  0.49  1.00  0.51  0.62  0.00  0.00  0.00   1.7  0.00  0.00  0.00  0.00
 2023 100   221   138  19.5  -6.0 89.42 12.23  0.61  1.33 110.2  1.24 1.100  2.34 17428     9   957 16462   718  5994  6480  0.39  2094  7366  4702  1176 245.7 54.14  53.4 14465 .0448   440   172  1.20  0.98  34.5  10.6  0.50  0.99  0.50  0.61  0.00  0.00  0.00   1.7  0.00  0.00  0.00  0.00
 2023 101   222   139  21.5  -6.0 89.79 12.23  0.55  1.22  95.5  1.04 1.089  2.13 17522     9   957 16556   607  5895  6700  0.40  2094  7586  4641  1260 245.7 55.18  54.0 14465 .0463   434   171  1.20  0.98  33.0  10.4  0.46  1.00  0.54  0.65  0.00  0.00  0.00   1.2  0.00  0.10  0.00  0.00
 2023 102   223   140  20.7  -6.0 90.42 12.23  0.47  1.27  88.7  0.83 1.079  1.91 17609     9   958 16643   487  5861  6828  0.41  2119  7714  4670  1348 245.7 56.16  55.2 14465 .0472   428   170  1.20  0.98  31.7  11.5  0.48  1.00  0.52  0.63  0.00  0.00  0.00   1.2  0.00  0.04  0.00  0.00

*DSSAT Cropping System Model Ver. 4.8.2.000 -release  AUG 18, 2025 20:50:00

*RUN   2        : WW23_G-2                  CSCER048 CIOB2301    2
 MODEL          : CSCER048 - Wheat
 EXPERIMENT     : CIOB2301 WH ROOTS ANATOMY
 DATA PATH      : C:\DSSAT48\Wheat\
 TREATMENT  2   : WW23_G-2                  CSCER048
  
@YEAR DOY   DAS   DAP TMEAN TKILL  GSTD  L#SD PARID PARUD  AWAD  LAID  SAID  CAID  TWAD SDWAD  RWAD  CWAD  LWAD  SWAD  HWAD  HIAD CHWAD  EWAD RSWAD SNWPD SNWLD SNWSD  RS%D  H#AD  HWUD  T#AD  SLAD  RDPD  PTFD  SWXD WAVRD WUPRD  WFTD  WFPD  WFGD  NFTD  NFPD  NFGD NUPRD  TFPD  TFGD VRNFD DYLFD
 2022 327    83     0  17.6  -6.0  0.00  0.00  0.00  0.00   0.0  0.00 0.000  0.00    43    43     0     0     0     0     0  0.00     0     0     0     0     0     0   0.0     0     0   150   -99  0.04  0.98  19.7  99.9  1.00  0.00  0.00  0.00  0.00  0.00  0.00   0.0  0.00  0.00  0.50  0.00
 2022 328    84     1  16.4  -6.0  5.84  0.00  0.00  0.00   0.0  0.00 0.000  0.00    43    43     0     0     0     0     0  0.00     0     0     0     0     0     0   0.0     0     0   150   -99  0.04  0.98   7.2  99.9  1.00  0.00  0.00  0.00  0.00  0.00  0.00   0.0  0.00  0.00  0.50  0.00
 2022 329    85     2  17.4  -6.0  8.40  0.00  0.00  0.00   0.0  0.00 0.000  0.00    43    41     2     0     0     0     0  0.00     0     0     0     0     0     0   0.0     0     0   150   -99  0.07  0.98   4.7  99.9  1.00  0.00  0.00  0.00  0.00  0.00  0.00   0.0  0.00  0.00  0.50  0.00
 2022 330    86     3  18.0  -6.0 10.00  0.00  0.00  0.00   0.0  0.00 0.000  0.00    43    39     3     0     0     0     0  0.00     0     0     0     0     0 .0014   0.0     0     0   150   -99  0.10  0.98   4.6  99.9  1.00  0.00  0.00  0.00  0.00  0.00  0.00   2.0  0.00  0.00  0.50  0.00
 2022 331    87     4  16.3  -6.0 10.32  0.32  0.02  0.00   0.0  0.03 0.003  0.03    43    25     5    13     8     4     0  0.00     0     0     0     0     0 .0041   0.0     0     0   150   350  0.13  0.75   5.0  99.9  1.00  0.00  0.00  0.00  0.00  0.00  0.00   0.1  0.00  0.00  0.50  0.32
 2022 332    88     5  16.1  -6.0 10.64  0.64  0.03  1.18   1.8  0.05 0.005  0.05    44    17     6    20    14     7     0  0.00     0     0     0     0 0.126 .0079   0.8     0     0   150   347  0.16  0.71   5.5  97.0  0.57  0.86  0.43  0.56  0.00  0.00  0.00   0.1  0.00  0.00  0.50  0.32
 2022 333    89     6  18.1  -6.0 11.00  1.00  0.04  0.57   1.4  0.06 0.006  0.06    45    12     8    25    17     9     0  0.00     0     0     0     0 0.328 .0135   1.5     0     0   150   347  0.19  0.70   7.2  78.3  0.45  1.00  0.55  0.66  0.38  0.38  0.38   0.3  0.00  0.00  0.50  0.32
 2022 334    90     7  18.5  -6.0 11.36  1.36  0.04  0.57   1.6  0.06 0.006  0.07    46     9     9    28    18    10     0  0.00     0     0     1     0 0.575 .0208   2.2     0     0   150   346  0.23  0.71   9.1  82.3  0.52  0.96  0.48  0.60  0.47  0.47  0.47   0.7  0.00  0.00  0.50  0.32
 2022 335    91     8  19.2  -6.0 11.74  1.74  0.04  0.62   2.0  0.07 0.007  0.07    48     9    10    29    19    10     0  0.00     0     0     1     0 0.844 .0295   2.8     0     0   150   345  0.26  0.71  11.1  89.3  0.54  0.92  0.46  0.58  0.44  0.44  0.44   1.2  0.00  0.00  0.50  0.32
 2022 336    92     9  23.0  -6.0 12.10  2.10  0.04  0.65   2.1  0.07 0.007  0.08    49     9    10    31    20    11     0  0.00     0     0     1     0 1.126 .0406   3.4     0     0   150   345  0.30  0.71  13.5  99.9  0.51  0.97  0.49  0.61  0.39  0.39  0.39   1.4  0.00  0.20  0.50  0.32
 2022 337    93    10  23.0  -6.0 12.32  2.32  0.05  0.73   2.2  0.07 0.007  0.08    51     9    10    32    21    11     0  0.00     0     0     1     0 1.419 .0521   3.9     0     0   150   344  0.35  0.71  16.1  99.9  0.55  0.91  0.45  0.58  0.35  0.35  0.35   1.5  0.00  0.20  0.50  0.32
 2022 338    94    11  22.0  -6.0 12.54  2.54  0.05  0.81   2.4  0.07 0.007  0.08    53     9    11    33    21    12     0  0.00     0     0     1     0 1.723 .0636   4.3     0     0   158   342  0.37  0.72  17.8  99.9  0.56  0.87  0.44  0.57  0.31  0.31  0.31   1.6  0.00  0.13  0.50  0.32
 2022 339    95    12  22.2  -6.0 12.76  2.76  0.05  1.50   1.9  0.08 0.008  0.08    54     9    11    35    23    12     0  0.00     0     0     1     0 1.723 .0756   3.8     0     0   206   341  0.40  0.73  19.5  99.9  1.39  0.00  0.00  0.00  0.28  0.28  0.28   2.0  0.00  0.15  0.50  0.32
 2022 340    96    13  19.7  -6.0 12.95  2.95  0.05  1.56   1.5  0.08 0.008  0.09    56     9    11    36    23    12     0  0.00     0     0     1     0 1.723 .0865   3.3     0     0   249   341  0.42  0.74  23.0  99.9  1.96  0.00  0.00  0.00  0.25  0.25  0.25   2.0  0.00  0.00  0.50  0.32
 2022 341    97    14  20.0  -6.0 13.15  3.15  0.05  1.61   2.6  0.08 0.008  0.09    58     9    12    38    25    13     0  0.00     0     0     1     0 1.723 .0978   2.9     0     0   295   340  0.44  0.74  23.7  99.9  1.21  0.00  0.00  0.07  0.22  0.22  0.22   1.7  0.00  0.00  0.50  0.32
 2022 342    98    15  20.8  -6.0 21.00  3.35  0.06  0.91   3.3  0.09 0.009  0.10    61     9    12    40    26    14     0  0.00     0     0     1     0 2.085 0.110   3.5     0     0   301   338  0.47  0.72  24.7  99.9  0.55  0.91  0.45  0.58  0.20  0.20  0.20   1.4  0.00  0.05  0.50  0.32
 2022 343    99    16  18.0  -6.0 21.02  3.53  0.06  0.89   3.8  0.09 0.009  0.10    64     9    13    42    27    15     0  0.00     0     0     2     0 2.464 0.121   4.0     0     0   303   337  0.49  0.72  26.0  99.9  0.52  0.96  0.48  0.60  0.17  0.17  0.17   1.5  0.00  0.00  0.50  0.33
 2022 344   100    17  17.0  -6.0 21.03  3.70  0.06  0.91   4.2  0.10 0.010  0.11    67     9    14    45    29    16     0  0.00     0     0     2     0 2.862 0.132   4.3     0     0   305   335  0.51  0.72  27.2  99.9  0.52  0.97  0.48  0.60  0.15  0.15  0.15   1.5  0.00  0.00  0.50  0.33
 2022 345   101    18  16.2  -6.0 21.07  3.86  0.06  1.01   4.7  0.10 0.011  0.11    71     9    14    48    31    17     0  0.00     0     0     2     0 3.283 0.143   4.6     0     0   310   334  0.52  0.72  28.3  99.9  0.56  0.88  0.44  0.57  0.13  0.13  0.13   1.5  0.00  0.00  0.50  0.33
 2022 346   102    19  16.1  -6.0 21.11  4.02  0.07  1.05   5.3  0.11 0.011  0.12    75     9    15    51    33    18     0  0.00     0     0     3     0 3.729 0.155   4.9     0     0   317   333  0.54  0.73  29.4  99.9  0.57  0.85  0.43  0.56  0.11  0.11  0.11   1.4  0.00  0.00  0.50  0.33
 2022 347   103    20  15.1  -6.0 21.20  4.16  0.07  1.20   6.1  0.11 0.011  0.12    78     9    16    54    33    21     0  0.00     0     0     4     0 5.665 0.166   7.9     0     0   330   331  0.56  0.73  78.1  99.9  0.64  0.72  0.36  0.51  0.10  0.10  0.10   1.2  0.00  0.00  0.50  0.33
 2022 348   104    21  15.2  -6.0 21.47  4.31  0.07  1.91  10.4  0.12 0.012  0.13    86     9    18    60    36    24     0  0.00     0     0     6     0 7.624 0.178  10.0     0     0   371   328  0.58  0.76  61.4  99.9  2.29  0.00  0.00  0.00  0.08  0.08  0.08   2.0  0.00  0.00  0.50  0.33
 2022 349   105    22  14.6  -6.0 21.74  4.46  0.08  1.95  11.1  0.13 0.014  0.14    94     9    19    66    39    27     0  0.00     0     0     7     0 9.526 0.191  11.2     0     0   412   325  0.59  0.76  45.9  99.9  2.51  0.00  0.00  0.00  0.06  0.06  0.06   2.0  0.00  0.00  0.49  0.33
 2022 350   106    23  12.5  -6.0 21.98  4.58  0.08  1.98   6.8  0.13 0.014  0.15    98     9    20    70    41    29     0  0.00     0     0     8     0 11.16 0.203  12.0     0     0   447   324  0.61  0.77  39.5  99.9  3.15  0.00  0.00  0.00  0.05  0.05  0.05   2.0  0.00  0.00  0.41  0.33
 2022 351   107    24  14.9  -6.0 22.26  4.73  0.09  1.99  12.1  0.14 0.016  0.16   107     9    22    77    45    32     0  0.00     0     0    10     0 13.07 0.218  12.5     0     0   489   322  0.63  0.77  37.7  99.9  1.74  0.00  0.00  0.00  0.04  0.04  0.04   1.2  0.00  0.00  0.41  0.33
 2022 352   108    25  15.5  -6.0 22.56  4.88  0.10  2.02  13.4  0.17 0.018  0.19   120     9    24    87    52    35     0  0.00     0     0     9     0 13.07 0.235  10.2     0     0   534   320  0.64  0.77  38.2  99.9  1.61  0.00  0.00  0.00  0.03  0.03  0.03   1.2  0.00  0.00  0.41  0.33
 2022 353   109    26  14.8  -6.0 22.84  5.03  0.12  2.03  15.7  0.19 0.021  0.21   134     9    26    99    61    39     0  0.00     0     0     8     0 13.07 0.253   8.3     0     0   576   319  0.66  0.77  38.9  99.9  1.36  0.00  0.00  0.00  0.02  0.02  0.02   0.9  0.00  0.00  0.40  0.33
 2022 354   110    27  16.6  -6.0 23.16  5.19  0.13  2.00  16.2  0.22 0.024  0.24   148     9    28   111    69    43     0  0.00     0     0     8     0 13.56 0.274   7.3     0     0   623   317  0.67  0.77  39.7  99.9  1.33  0.00  0.00  0.00  0.03  0.03  0.03   0.9  0.00  0.00  0.40  0.33
 2022 355   111    28  15.2  -6.0 23.45  5.34  0.15  2.00  20.2  0.25 0.027  0.28   166     9    31   127    79    48     0  0.00     0     0     8     0 14.01 0.296   6.4     0     0   667   315  0.69  0.77  40.3  99.9  1.15  0.00  0.00  0.12  0.03  0.03  0.03   0.9  0.00  0.00  0.40  0.33
 2022 356   112    29  15.3  -6.0 23.88  5.49  0.17  1.98  22.9  0.28 0.031  0.31   186     9    34   144    90    54     0  0.00     0     0     8     0 14.46 0.319   5.7     0     0   732   313  0.70  0.77  41.0  99.1  1.08  0.00  0.00  0.17  0.04  0.04  0.04   0.9  0.00  0.00  0.40  0.33
 2022 357   113    30  15.9  -6.0 24.32  5.65  0.19  1.96  25.1  0.32 0.036  0.35   208     9    37   163   102    60     0  0.00     0     0     8     0 14.94 0.346   5.1     0     0   798   312  0.72  0.77  41.6  89.0  1.03  0.00  0.00  0.21  0.05  0.05  0.05   0.9  0.00  0.00  0.40  0.33
 2022 358   114    31  16.2  -6.0 24.77  5.81  0.21  1.91  27.6  0.36 0.041  0.40   233     9    41   183   116    67     0  0.00     0     0     8     0 15.42 0.377   4.6     0     0   866   311  0.73  0.77  42.2  80.0  0.98  0.03  0.02  0.24  0.06  0.06  0.06   0.9  0.00  0.00  0.40  0.33
 2022 359   115    32  17.8  -6.0 25.20  5.98  0.23  1.76  28.4  0.40 0.045  0.45   258     9    45   205   130    75     0  0.00     0     0     9     0 15.96 0.413   4.2     0     0   930   309  0.75  0.77  42.9  69.9  0.91  0.18  0.09  0.30  0.07  0.07  0.07   0.9  0.00  0.00  0.46  0.33
 2022 360   116    33  17.0  -6.0 25.56  6.15  0.25  1.68  30.2  0.45 0.051  0.50   285     9    49   228   145    82     0  0.00     0     0     9     0 16.09 0.451   3.7     0     0   985   308  0.77  0.76  43.5  64.6  0.86  0.27  0.14  0.34  0.06  0.06  0.06   0.9  0.00  0.00  0.46  0.33
 2022 361   117    34  17.5  -6.0 25.89  6.32  0.27  1.60  31.3  0.49 0.056  0.55   313     9    54   251   160    91     0  0.00     0     0     9     0 16.73 0.495   3.6     0     0  1034   307  0.79  0.76  44.1  59.7  0.82  0.36  0.18  0.37  0.06  0.06  0.06   1.0  0.00  0.00  0.50  0.33
 2022 362   118    35  16.6  -6.0 26.36  6.49  0.29  1.96  26.1  0.53 0.061  0.59   336     9    57   270   173    97     0  0.00     0     0     9     0 17.34 0.539   3.4     0     0  1104   306  0.80  0.77  44.8  93.1  1.31  0.00  0.00  0.00  0.05  0.05  0.05   1.3  0.00  0.00  0.50  0.33
 2022 363   119    36  17.2  -6.0 26.85  6.65  0.30  1.98  12.1  0.55 0.063  0.61   346     9    59   279   179   100     0  0.00     0     0     9     0 17.97 0.588   3.3     0     0  1177   305  0.82  0.78  46.0  99.9  2.94  0.00  0.00  0.00  0.04  0.04  0.04   2.0  0.00  0.00  0.50  0.33
 2022 364   120    37  18.6  -6.0 27.16  6.84  0.32  1.57  34.2  0.59 0.068  0.66   377     9    64   304   195   109     0  0.00     0     0    10     0 18.65 0.643   3.2     0     0  1224   304  0.84  0.76  46.6  56.3  0.78  0.43  0.22  0.40  0.04  0.04  0.04   1.1  0.00  0.00  0.50  0.33
 2022 365   121    38  17.8  -6.0 27.40  7.01  0.34  1.47  36.0  0.64 0.074  0.72   408     9    69   331   212   119     0  0.00     0     0    10     0 19.31 0.700   3.1     0     0  1260   303  0.85  0.75  47.2  51.2  0.73  0.54  0.27  0.44  0.03  0.03  0.03   1.1  0.00  0.00  0.50  0.33
 2023   1   122    39  16.6  -6.0 27.74  7.18  0.36  1.71  39.2  0.69 0.081  0.77   442     9    74   360   230   129     0  0.00     0     0    11     0 20.72 0.757   3.2     0     0  1310   301  0.87  0.77  47.6  57.7  0.84  0.31  0.16  0.35  0.02  0.02  0.02   1.1  0.00  0.00  0.50  0.33
 2023   2   123    40  15.1  -6.0 28.18  7.33  0.39  2.04  40.8  0.75 0.088  0.84   478     9    80   390   250   141     0  0.00     0     0    13     0 22.01 0.813   3.2     0     0  1376   300  0.89  0.78  48.0  68.8  1.03  0.00  0.00  0.20  0.02  0.02  0.02   1.1  0.00  0.00  0.50  0.33
 2023   3   124    41  13.8  -6.0 28.37  7.46  0.41  1.53  44.4  0.81 0.095  0.90   517     9    86   423   270   152     0  0.00     0     0    13     0 23.19 0.868   3.2     0     0  1406   299  0.90  0.76  90.8  91.0  0.74  0.51  0.26  0.43  0.01  0.01  0.01   1.0  0.00  0.00  0.46  0.33
 2023   4   125    42  16.3  -6.0 28.85  7.62  0.44  2.06  65.6  0.90 0.106  1.00   576     9    94   473   302   171     0  0.00     0     0    15     0 24.58 0.938   3.2     0     0  1478   297  0.92  0.78  74.2  61.0  2.08  0.00  0.00  0.00  0.01  0.01  0.01   1.4  0.00  0.00  0.46  0.33
 2023   5   126    43  17.6  -6.0 29.37  7.80  0.48  2.07  73.6  1.00 0.119  1.12   641     9   104   529   337   192     0  0.00     0     0    17     0 26.10 1.022   3.2     0     0  1556   296  0.93  0.79  64.4  47.0  2.03  0.00  0.00  0.00  0.00  0.00  0.00   1.4  0.00  0.00  0.48  0.33
 2023   6   127    44  18.3  -6.0 29.91  7.98  0.51  2.07  78.2  1.11 0.132  1.24   711     9   114   589   375   214     0  0.00     0     0    19     0 27.69 1.117   3.2     0     0  1637   294  0.95  0.79  60.6  42.0  1.69  0.00  0.00  0.00  0.00  0.00  0.00   1.2  0.00  0.00  0.48  0.32
 2023   7   128    45  17.7  -6.0 30.00  8.15  0.55  2.07  81.3  1.22 0.147  1.37   785     9   124   652   415   237     0  0.00     0     0    20     0 28.54 1.217   3.1     0     0  1715   294  0.97  0.79  59.9  40.7  1.63  0.00  0.00  0.00  0.00  0.00  0.00   1.2  0.00  0.00  0.48  0.32
 2023   8   129    46  17.3  -6.0 30.00  8.32  0.58  2.07  86.8  1.32 0.160  1.48   859     9   135   715   453   262     0  0.00     0     0    25     0 33.57 1.325   3.5     0     0  1791   292  0.99  0.79  59.5  38.2  1.51  0.00  0.00  0.00  0.00  0.00  0.00   1.1  0.00  0.00  0.48  0.32
 2023   9   130    47  16.6  -6.0 30.00  8.48  0.61  2.07  95.7  1.44 0.176  1.61   941     9   147   786   496   290     0  0.00     0     0    30     0 38.44 1.437   3.9     0     0  1865   290  1.00  0.79  59.0  34.7  1.34  0.00  0.00  0.00  0.00  0.00  0.00   1.1  0.00  0.00  0.48  0.32
 2023  10   131    48  17.2  -6.0 30.00  8.65  0.64  2.07  97.6  1.56 0.191  1.75  1026     9   159   858   540   318     0  0.00     0     0    35     0 43.50 1.563   4.1     0     0  1941   289  1.02  0.79  58.5  33.2  1.24  0.00  0.00  0.04  0.00  0.00  0.00   1.1  0.00  0.00  0.48  0.32
 2023  11   132    49  17.9  -6.0 30.00  8.83  0.67  2.07 107.6  1.69 0.209  1.90  1119     9   173   938   588   350     0  0.00     0     0    40     0 48.77 1.706   4.2     0     0  2020   288  1.04  0.79  57.8  29.3  1.08  0.00  0.00  0.17  0.00  0.00  0.00   1.0  0.00  0.00  0.50  0.32
 2023  12   133    50  18.4  -6.0 30.00  9.01  0.70  2.07 113.3  1.83 0.227  2.06  1217     9   187  1022   639   382     0  0.00     0     0    45     0 54.21 1.865   4.4     0     0  2101   286  1.05  0.79  57.0  27.5  1.00  0.00  0.00  0.23  0.00  0.00  0.00   1.0  0.00  0.00  0.50  0.32
 2023  13   134    51  16.6  -6.0 30.00  9.17  0.72  1.87 105.6  1.94 0.242  2.18  1304     9   200  1095   681   414     0  0.00     0     0    53     0 63.53 2.020   4.8     0     0  2161   285  1.07  0.78  56.4  26.8  0.90  0.19  0.10  0.30  0.00  0.00  0.00   1.1  0.00  0.00  0.50  0.32
 2023  14   135    52  17.6  -6.0 30.00  9.35  0.73  1.67  95.8  2.04 0.256  2.29  1381     9   213  1159   717   442     0  0.00     0     0    60     0 73.45 2.197   5.2     0     0  2209   284  1.09  0.77  55.9  25.6  0.81  0.39  0.19  0.38  0.00  0.00  0.00   1.4  0.00  0.00  0.50  0.32
 2023  15   136    53  16.9  -6.0 30.00  9.51  0.75  2.07  83.7  2.12 0.267  2.39  1448     9   224  1216   750   466     0  0.00     0     0    66     0 82.95 2.377   5.4     0     0  2283   283  1.10  0.79  55.7  37.7  1.11  0.00  0.00  0.14  0.00  0.00  0.00   1.6  0.00  0.00  0.50  0.32
 2023  16   137    54  17.0  -6.0 30.00  9.68  0.76  1.46  87.3  2.21 0.279  2.49  1517     9   236  1273   783   490     0  0.00     0     0    72     0 92.53 2.566   5.6     0     0  2314   282  1.12  0.76  55.4  25.2  0.70  0.59  0.30  0.46  0.00  0.00  0.00   1.5  0.00  0.00  0.50  0.32
 2023  17   138    55  14.1  -6.0 30.00  9.82  0.77  2.07  37.9  2.24 0.284  2.52  1544     9   240  1295   796   499     0  0.00     0     0    74     0 100.5 2.732   5.7     0     0  2376   281  1.14  0.79  56.1  89.3  2.34  0.00  0.00  0.00  0.00  0.00  0.00   2.0  0.00  0.00  0.47  0.32
 2023  18   139    56  13.8  -6.0 30.00  9.96  0.78  1.46  86.4  2.33 0.297  2.63  1614     9   252  1354   832   522     0  0.00     0     0    77     0 108.4 2.898   5.7     0     0  2401   280  1.15  0.77  55.6  27.2  0.71  0.59  0.29  0.46  0.00  0.00  0.00   1.4  0.00  0.00  0.43  0.32
 2023  19   140    57  14.2  -6.0 30.00 10.10  0.79  1.36  81.1  2.42 0.309  2.73  1680     9   264  1408   865   543     0  0.00     0     0    79     0 115.8 3.078   5.6     0     0  2421   280  1.16  0.76  55.2  26.3  0.66  0.69  0.34  0.50  0.00  0.00  0.00   1.6  0.00  0.00  0.41  0.31
 2023  20   141    58  13.8  -6.0 30.00 10.23  0.80  1.15  78.2  2.45 0.315  2.76  1730     9   275  1446   878   568     0  0.00     0     0    94     0 136.3 3.259   6.5     0     0  2428   278  1.18  0.75 110.7  46.5  0.56  0.89  0.44  0.57  0.00  0.00  0.00   1.6  0.00  0.00  0.37  0.31
 2023  21   142    59  14.1  -6.0 30.00 10.37  0.82  2.07 142.0  2.61 0.338  2.95  1851     9   292  1551   943   608     0  0.00     0     0    98     0 144.9 3.453   6.3     0     0  2490   277  1.19  0.80  94.0  39.0  3.35  0.00  0.00  0.00  0.00  0.00  0.00   2.0  0.00  0.00  0.34  0.31
 2023  22   143    60  14.1  -6.0 30.00 10.51  0.84  2.07 149.1  2.79 0.363  3.15  1980     9   310  1661  1012   649     0  0.00     0     0   102     0 153.5 3.658   6.1     0     0  2490   276  1.20  0.80  84.7  33.3  3.37  0.00  0.00  0.00  0.00  0.00  0.00   1.8  0.00  0.00  0.31  0.31
 2023  23   144    61  12.6  -6.0 30.00 10.63  0.85  2.07 129.2  2.94 0.385  3.33  2090     9   325  1757  1072   685     0  0.00     0     0   104     0 161.2 3.853   5.9     0     0  2490   274  1.22  0.80  82.2  38.8  3.95  0.00  0.00  0.00  0.00  0.00  0.00   2.0  0.00  0.00  0.24  0.31
 2023  24   145    62  13.1  -6.0 30.00 10.76  0.87  2.07 156.4  3.13 0.411  3.54  2226     9   344  1873  1145   728     0  0.00     0     0   107     0 169.3 4.066   5.7     0     0  2490   273  1.22  0.80  79.0  30.5  3.11  0.00  0.00  0.00  0.00  0.00  0.00   1.8  0.00  0.00  0.18  0.31
 2023  25   146    63  14.5  -6.0 30.00 10.90  0.89  2.07 160.4  3.34 0.441  3.78  2370     9   363  1998  1227   771     0  0.00     0     0   106     0 172.7 4.315   5.3     0     0  2490   272  1.22  0.80  75.6  27.3  2.72  0.00  0.00  0.00  0.00  0.00  0.00   1.8  0.00  0.00  0.00  0.00
 2023  26   147    64  15.7  -6.0 30.00 11.06  0.90  2.07 150.6  3.53 0.468  4.00  2504     9   381  2115  1303   812     0  0.00     0     0   106     0 177.2 4.599   5.0     0     0  2490   271  1.22  0.80  72.4  27.2  2.68  0.00  0.00  0.00  0.00  0.00  0.00   2.0  0.00  0.00  0.00  0.00
 2023  27   148    65  12.1  -6.0 30.00 11.18  0.91  2.07 122.1  3.68 0.490  4.17  2613     9   395  2210  1367   843     0  0.00     0     0   104     0 180.7 4.831   4.7     0     0  2490   269  1.22  0.81  70.0  34.6  3.12  0.00  0.00  0.00  0.00  0.00  0.00   2.0  0.00  0.00  0.00  0.00
 2023  28   149    66  15.6  -6.0 30.00 11.33  0.92  2.07 137.6  3.85 0.515  4.36  2735     9   410  2316  1434   882     0  0.00     0     0   105     0 185.2 5.138   4.5     0     0  2490   268  1.22  0.81  67.2  27.2  2.29  0.00  0.00  0.00  0.00  0.00  0.00   2.0  0.00  0.00  0.00  0.00
 2023  29   150    67  14.4  -6.0 30.09 11.47  0.93  2.07 168.4  4.04 0.545  4.59  2886     9   429  2449  1512   937     0  0.00     0     0   108     0 189.4 5.435   4.4     0     0  2490   267  1.22  0.81  63.9  21.6  1.67  0.00  0.00  0.00  0.00  0.00  0.00   2.0  0.00  0.00  0.00  0.00
 2023  30   151    68  14.6  -6.0 30.78 11.62  0.94  2.07 152.0  4.22 0.573  4.79  3022     9   446  2568  1578   990     0  0.00     0     0   110     0 193.6 5.747   4.3     0     0  2490   267  1.22  0.81  61.1  22.8  1.57  0.00  0.00  0.00  0.00  0.00  0.00   2.0  0.00  0.00  0.00  0.00
 2023  31   152    69  14.5  -6.0 31.47 11.76  0.94  2.07 157.1  4.39 0.601  5.00  3163     9   463  2692  1647  1045     0  0.00     0     0   114     0 197.8 6.070   4.2     0     0  2490   267  1.22  0.82  58.3  21.0  1.32  0.00  0.00  0.00  0.00  0.00  0.00   2.0  0.00  0.00  0.00  0.00
 2023  32   153    70  13.4  -6.0 32.11 11.89  0.95  2.07 118.2  4.53 0.623  5.15  3269     9   476  2785  1696  1088     0  0.00     0     0   114     0 201.7 6.379   4.1     0     0  2490   267  1.22  0.82  56.2  27.8  1.57  0.00  0.00  0.00  0.00  0.00  0.00   2.0  0.00  0.00  0.00  0.00
 2023  33   154    71  15.9  -6.0 32.86 12.05  0.95  1.99 156.3  4.70 0.651  5.35  3409     9   492  2908  1763  1145     0  0.00     0     0   119     0 206.3 6.756   4.1     0     0  2490   266  1.22  0.82  53.3  18.0  0.96  0.08  0.04  0.26  0.00  0.00  0.00   2.0  0.00  0.00  0.00  0.00
 2023  34   155    72  16.9  -6.0 33.67 12.21  0.96  1.65 129.4  4.82 0.673  5.50  3522     9   507  3007  1814  1192     0  0.00     0     0   122     0 211.2 7.171   4.1     0     0  2490   266  1.22  0.80  96.5  31.3  0.79  0.41  0.21  0.39  0.00  0.00  0.00   2.0  0.00  0.00  0.00  0.00
 2023  35   156    73  16.9  -6.0 34.47 12.38  0.96  2.07 169.6  4.99 0.703  5.70  3675     9   525  3142  1885  1257     0  0.00     0     0   129     0 216.2 7.599   4.1     0     0  2490   265  1.22  0.83  89.4  27.8  3.88  0.00  0.00  0.00  0.00  0.00  0.00   2.0  0.00  0.00  0.00  0.00
 2023  36   157    74  18.1  -6.0 35.34 12.56  0.96  2.07 170.4  5.16 0.734  5.89  3828     9   541  3278  1955  1323     0  0.00     0     0   137     0 221.5 8.075   4.2     0     0  2490   264  1.22  0.83  83.4  25.2  4.66  0.00  0.00  0.00  0.00  0.00  0.00   2.0  0.00  0.00  0.00  0.00
 2023  37   158    75  16.7  -6.0 36.13 12.72  0.97  2.07 164.1  5.31 0.763  6.07  3975     9   558  3409  2021  1389     0  0.00     0     0   144     0 226.4 8.527   4.2     0     0  2490   263  1.22  0.83  80.1  26.1  5.10  0.00  0.00  0.00  0.00  0.00  0.00   2.0  0.00  0.00  0.00  0.00
 2023  38   159    76  16.2  -6.0 36.90 12.88  0.97  2.07 178.7  5.48 0.795  6.27  4137     9   575  3554  2092  1462     0  0.00     0     0   152     0 231.2 8.979   4.3     0     0  2490   262  1.22  0.84  76.6  23.3  4.52  0.00  0.00  0.00  0.00  0.00  0.00   2.0  0.00  0.00  0.00  0.00
 2023  39   160    77  18.1  -6.0 37.77 13.06  0.97  2.07 184.3  5.64 0.828  6.47  4304     9   592  3703  2164  1539     0  0.00     0     0   162     0 236.5 9.501   4.4     0     0  2490   261  1.22  0.84  72.9  20.4  3.71  0.00  0.00  0.00  0.00  0.00  0.00   2.0  0.00  0.00  0.00  0.00
 2023  40   161    78  15.1  -6.0 38.49 13.21  0.98  2.07 186.9  5.80 0.863  6.67  4474     9   609  3856  2237  1619     0  0.00     0     0   172     0 241.0 9.948   4.5     0     0  2490   259  1.22  0.84  69.2  20.1  3.08  0.00  0.00  0.00  0.00  0.00  0.00   2.0  0.00  0.00  0.00  0.00
 2023  41   162    79  17.1  -6.0 39.31 13.38  0.98  2.07 165.1  5.94 0.893  6.83  4623     9   624  3990  2298  1692     0  0.00     0     0   179     0 246.1 10.47   4.5     0     0  2490   259  1.22  0.84  65.9  20.8  2.70  0.00  0.00  0.00  0.00  0.00  0.00   2.0  0.00  0.00  0.00  0.00
 2023  42   163    80  14.0  -6.0 39.97 13.51  0.98  2.07  59.9  6.00 0.905  6.91  4675     9   629  4037  2316  1721     0  0.00     0     0   173     0 250.3 10.91   4.3     0     0  2490   259  1.22  0.85  64.8  61.2  6.69  0.00  0.00  0.00  0.00  0.00  0.00   2.0  0.00  0.00  0.00  0.00
 2023  43   164    81  15.7  -6.0 40.76 13.67  0.98  2.07 168.6  6.14 0.936  7.07  4828     9   644  4176  2378  1798     0  0.00     0     0   182     0 254.9 11.40   4.4     0     0  2490   258  1.22  0.85  61.6  19.8  2.14  0.00  0.00  0.00  0.00  0.00  0.00   2.0  0.00  0.00  0.00  0.00
 2023  44   165    82  13.9  -6.0 41.45 13.67  0.98  2.72 149.3  6.09 0.953  7.05  4968     9   657  4303  2412  1880     0  0.00     0     0   232    11 254.9 11.85   5.4     0     0  2490   253  1.22  0.85  59.5  29.7  2.77  0.00  0.00  0.00  0.00  0.00  0.00   2.0  0.00  0.00  0.00  0.00
 2023  45   166    83  13.7  -6.0 42.14 13.67  0.98  2.72 222.6  6.05 0.981  7.03  5178     9   675  4494  2434  2037     0  0.00     0     0   300    23 254.9 12.30   6.7     0     0  2490   249  1.22  0.86  56.4  18.7  1.64  0.00  0.00  0.00  0.00  0.00  0.00   2.0  0.00  0.00  0.00  0.00
 2023  46   167    84  14.2  -6.0 42.85 13.67  0.98  2.72 229.1  5.98 1.010  6.99  5393     9   694  4691  2422  2235     0  0.00     0     0   371    34 254.9 12.78   8.0     0     0  2436   247  1.22  0.86  56.9  18.3  1.35  0.00  0.00  0.00  0.00  0.00  0.00   2.0  0.00  0.00  0.00  0.00
 2023  47   168    85  14.1  -6.0 43.55 13.67  0.98  2.72 252.8  5.91 1.043  6.96  5632     9   714  4910  2410  2454     0  0.00     0     0   449    46 254.9 13.27   9.2     0     0  2383   245  1.22  0.86  53.3  15.6  1.59  0.00  0.00  0.00  0.00  0.00  0.00   2.0  0.00  0.00  0.00  0.00
 2023  48   169    86  12.8  -6.0 44.19 13.67  0.98  2.72 182.1  5.85 1.066  6.92  5804     9   728  5068  2399  2612     0  0.00     0     0   507    56 254.9 13.72  10.1     0     0  2336   244  1.22  0.87  97.5  40.2  1.62  0.00  0.00  0.00  0.00  0.00  0.00   2.0  0.00  0.00  0.00  0.00
 2023  49   170    87  17.4  -6.0 45.07 13.67  0.98  2.72 162.1  5.77 1.084  6.85  5957     9   740  5209  2382  2756     0  0.00     0     0   563    71 254.9 14.36  11.0     0     0  2275   242  1.21  0.87 103.9  44.5  7.86  0.00  0.00  0.00  0.00  0.00  0.00   2.0  0.00  0.00  0.00  0.00
 2023  50   171    88  18.8  -6.0 46.01 13.67  0.98  2.72 141.9  5.68 1.099  6.77  6091     9   750  5333  2364  2882     0  0.00     0     0   616    87 254.9 15.05  11.7     0     0  2210   240  1.21  0.88  90.6  43.0  9.94  0.00  0.00  0.00  0.00  0.00  0.00   2.0  0.00  0.00  0.00  0.00
 2023  51   172    89  18.3  -6.0 46.92 13.67  0.97  2.72 174.9  5.59 1.118  6.71  6257     9   762  5487  2348  3037     0  0.00     0     0   678   102 254.9 15.74  12.6     0     0  2150   238  1.21  0.88  84.5  32.8  8.55  0.00  0.00  0.00  0.00  0.00  0.00   2.0  0.00  0.00  0.00  0.00
 2023  52   173    90  16.3  -6.0 47.74 13.67  0.97  2.72 161.4  5.51 1.137  6.65  6410     9   772  5630  2333  3181     0  0.00     0     0   735   116 254.9 16.36  13.3     0     0  2098   236  1.21  0.88  82.5  36.6  9.94  0.00  0.00  0.00  0.00  0.00  0.00   2.0  0.00  0.00  0.00  0.00
 2023  53   174    91  15.3  -6.0 48.51 13.67  0.97  2.72 265.5  5.44 1.172  6.61  6664     9   789  5866  2319  3418     0  0.00     0     0   819   129 254.9 16.95  14.3     0     0  2050   235  1.21  0.89  78.7  21.7  6.25  0.00  0.00  0.00  0.00  0.00  0.00   2.0  0.00  0.00  0.00  0.00
 2023  54   175    92  16.1  -6.0 49.31 13.67  0.97  2.72 266.4  5.36 1.207  6.57  6918     9   806  6103  2303  3549     0  0.00   108   108   904   143 254.9 17.59  15.2     0     0  2002   233  1.21  0.89  74.7  19.8  5.72  0.00  0.00  0.00  0.00  0.00  0.00   2.0  0.00  0.00  0.00  0.00
 2023  55   176    93  13.1  -6.0 49.97 13.67  0.97  2.72 171.2  5.30 1.229  6.53  7081     9   816  6257  2292  3608     0  0.00   203   178   961   154 254.9 18.12  15.7     0     0  1964   231  1.21  0.90  72.3  31.9  7.90  0.00  0.00  0.00  0.00  0.00  0.00   2.0  0.00  0.00  0.00  0.00
 2023  56   177    94  15.6  -6.0 53.72 13.67  0.97  2.72 168.4  5.23 1.249  6.48  7242     9   826  6408  2275  3675     0  0.00   291   247  1020   167 254.9 18.76  16.3     0     0  1919   230  1.21  0.90  69.8  29.7  6.58  0.00  0.00  0.00  0.00  0.00  0.00   2.0  0.00  0.00  0.00  0.00
 2023  57   178    95  17.0  -6.0 57.88 13.67  0.97  2.72 273.2  5.17 1.281  6.45  7505     9   840  6657  2266  3789     0  0.00   425   360  1104   177 254.9 19.46  17.0     0     0  1873   228  1.21  0.91  65.7  16.9  3.40  0.00  0.00  0.00  0.00  0.00  0.00   2.0  0.00  0.00  0.00  0.00
 2023  58   179    96  16.0  -6.0 65.23 13.67  0.96  2.72 272.8  5.12 1.315  6.43  7769     9   852  6909  2258  3891     0  0.00   574   474  1189   186 254.9 20.13  17.7     0     0  1830   227  1.21  0.92  61.6  16.0  2.67  0.00  0.00  0.00  0.00  0.00  0.00   2.0  0.00  0.00  0.00  0.00
 2023  59   180    97  16.1  -6.0 70.46 13.67  0.96  2.72 241.0  5.06 1.343  6.40  8003     9   861  7134  2249  3977     0  0.00   712   577  1266   195 254.9 20.82  18.2     0     0  1789   225  1.21  0.93  57.9  16.9  2.33  0.00  0.00  0.00  0.00  0.00  0.00   2.0  0.00  0.00  0.00  0.00
 2023  60   181    98  12.6  -6.0 71.07 13.67  0.96  2.72  82.4  5.02 1.349  6.37  8083     9   863  7211  2243  3984     5  0.00   778   617  1292   202 254.9 21.36  18.4 16375 .0000  1757   224  1.21  0.94  56.8  53.5  6.00  0.00  0.00  0.00  0.00  0.00  0.00   2.0  0.00  0.00  0.00  0.00
 2023  61   182    99  14.6  -6.0 71.79 13.67  0.96  2.72 282.2  4.97 1.387  6.35  8359     9   870  7480  2234  4103    19  0.00   914   754  1366   211 254.9 21.99  18.8 16375 .0001  1722   222  1.21  0.95  52.8  13.9  1.56  0.00  0.00  0.00  0.00  0.00  0.00   2.0  0.00  0.00  0.00  0.00
 2023  62   183   100  14.9  -6.0 72.51 13.67  0.96  2.72 288.4  4.92 1.426  6.34  8642     9   876  7758  2225  4192    45  0.01  1077   905  1433   219 254.9 22.64  19.1 16375 .0003  1687   221  1.21  0.96  48.6  12.3  1.17  0.00  0.00  0.10  0.00  0.00  0.00   2.0  0.00  0.00  0.00  0.00
 2023  63   184   101  14.5  -6.0 73.22 13.67  0.96  2.42 257.5  4.87 1.460  6.33  8895     9   881  8006  2217  4258    78  0.01  1225  1051  1482   228 254.9 23.27  19.3 16375 .0005  1654   220  1.21  0.96  44.7  11.2  0.89  0.22  0.11  0.32  0.00  0.00  0.00   2.0  0.00  0.00  0.00  0.00
 2023  64   185   102  15.5  -6.0 73.97 13.67  0.96  1.84 197.8  4.82 1.451  6.27  9089     9   886  8194  2208  4323   127  0.02  1300  1101  1630   237 254.9 23.96  20.8 16375 .0008  1619   218  1.21  0.95  41.6  10.0  0.68  0.65  0.32  0.48  0.00  0.00  0.00   2.0  0.00  0.00  0.00  0.00
 2023  65   186   103  16.9  -6.0 74.80 13.67  0.95  1.54 160.3  4.67 1.441  6.11  9245     9   890  8347  2153  4387   196  0.02  1336  1169  1752   275 254.9 24.70  22.2 16375 .0012  1583   217  1.21  0.95  39.0   9.6  0.57  0.86  0.43  0.56  0.00  0.00  0.00   2.0  0.00  0.00  0.00  0.00
 2023  66   187   104  16.9  -6.0 75.62 13.67  0.95  1.70 136.7  4.61 1.431  6.04  9379     9   892  8479  2143  4421   278  0.03  1352  1251  1812   285 254.9 25.45  22.9 16375 .0017  1548   215  1.21  0.97  89.2  28.3  0.63  0.75  0.37  0.52  0.00  0.00  0.00   2.0  0.00  0.00  0.00  0.00
 2023  67   188   105  18.4  -6.0 76.52 13.67  0.95  2.72 255.6  4.55 1.420  5.97  9632     9   894  8729  2131  4524   383  0.04  1396  1357  1969   296 254.9 26.28  24.5 16375 .0023  1511   214  1.21  0.98  85.1  22.4  4.32  0.00  0.00  0.00  0.00  0.00  0.00   2.0  0.00  0.00  0.00  0.00
 2023  68   189   106  19.7  -6.0 77.48 13.67  0.95  2.72 278.2  4.49 1.409  5.90  9907     9   896  9002  2118  4624   514  0.06  1439  1487  2122   307 254.9 27.16  25.9 16375 .0031  1472   212  1.21  0.98  80.5  19.0  5.71  0.00  0.00  0.00  0.00  0.00  0.00   2.0  0.00  0.00  0.00  0.00
 2023  69   190   107  19.4  -6.0 78.42 13.67  0.94  2.72 289.2  4.43 1.398  5.83 10193     9   899  9286  2106  4720   661  0.07  1480  1635  2270   319 254.9 28.03  27.3 16375 .0040  1436   210  1.21  0.98  75.7  17.3  5.81  0.00  0.00  0.00  0.00  0.00  0.00   2.0  0.00  0.00  0.00  0.00
 2023  70   191   108  19.6  -6.0 79.38 13.67  0.94  2.72 284.6  4.37 1.387  5.75 10475     9   902  9564  2093  4798   830  0.09  1513  1803  2392   331 254.9 28.91  28.5 16375 .0051  1401   209  1.21  0.98  70.9  16.4  5.08  0.00  0.00  0.00  0.00  0.00  0.00   2.0  0.00  0.00  0.00  0.00
 2023  71   192   109  22.8  -6.0 80.17 13.67  0.94  2.72 282.7  4.30 1.375  5.67 10754     9   904  9842  2077  4840  1047  0.11  1533  2021  2465   344 254.9 29.93  29.2 16375 .0064  1361   207  1.21  0.98  65.9  14.5  3.53  0.00  0.00  0.00  0.00  0.00  0.00   2.0  0.00  0.18  0.00  0.00
 2023  72   193   110  22.0  -6.0 80.55 13.67  0.94  2.72 288.2  4.26 1.363  5.62 11039     9   906 10124  2076  4876  1275  0.13  1548  2248  2525   349 254.9 30.93  29.7 16375 .0078  1325   205  1.21  0.98  60.8  13.4  2.54  0.00  0.00  0.00  0.00  0.00  0.00   2.0  0.00  0.13  0.00  0.00
 2023  73   194   111  19.8  -6.0 80.90 13.67  0.94  2.72 295.4  4.22 1.353  5.57 11331     9   909 10413  2075  4933  1480  0.14  1571  2453  2614   354 254.9 31.83  30.5 16375 .0090  1294   203  1.21  0.98  55.9  12.5  1.87  0.00  0.00  0.00  0.00  0.00  0.00   2.0  0.00  0.00  0.00  0.00
 2023  74   195   112  19.5  -6.0 81.23 13.67  0.93  2.72 259.4  4.19 1.343  5.53 11587     9   911 10668  2074  4969  1681  0.16  1586  2655  2671   358 254.9 32.71  31.0 16375 .0103  1264   202  1.21  0.98  51.5  13.2  1.57  0.00  0.00  0.00  0.00  0.00  0.00   2.0  0.00  0.00  0.00  0.00
 2023  75   196   113  20.5  -6.0 81.59 13.67  0.93  2.72 237.4  4.15 1.333  5.49 11822     9   913 10900  2072  4981  1893  0.17  1591  2867  2696   363 254.9 33.64  31.2 16375 .0116  1234   200  1.21  0.98  47.5  13.2  1.30  0.00  0.00  0.00  0.00  0.00  0.00   2.0  0.00  0.03  0.00  0.00
 2023  76   197   114  20.0  -6.0 81.94 13.67  0.93  2.72 101.4  4.12 1.323  5.44 11922     9   914 11000  2071  4901  2101  0.19  1559  3074  2593   367 254.9 34.56  30.4 16375 .0128  1206   199  1.21  0.98 100.8  67.1  2.42  0.00  0.00  0.00  0.00  0.00  0.00   2.0  0.00  0.00  0.00  0.00
 2023  77   198   115  19.0  -6.0 82.26 13.67  0.93  2.72 275.9  4.09 1.314  5.40 12194     9   916 11270  2070  4951  2298  0.20  1579  3272  2670   372 254.9 35.43  31.0 16375 .0140  1180   197  1.20  0.98 117.3  28.9  5.24  0.00  0.00  0.00  0.00  0.00  0.00   2.0  0.00  0.00  0.00  0.00
 2023  78   199   116  19.0  -6.0 82.59 13.67  0.93  2.72 289.3  4.06 1.305  5.36 12481     9   919 11554  2068  5010  2495  0.22  1603  3469  2761   376 254.9 36.30  31.8 16375 .0152  1155   196  1.20  0.98 100.1  23.4  6.12  0.00  0.00  0.00  0.00  0.00  0.00   2.0  0.00  0.00  0.00  0.00
 2023  79   200   117  19.0  -6.0 82.92 13.67  0.93  2.72 286.4  4.02 1.297  5.32 12764     9   921 11834  2067  5067  2693  0.23  1627  3666  2849   381 254.9 37.18  32.5 16375 .0164  1131   195  1.20  0.98  85.6  20.3  5.94  0.00  0.00  0.00  0.00  0.00  0.00   2.0  0.00  0.00  0.00  0.00
 2023  80   201   118  20.1  -6.0 83.27 13.67  0.93  2.72 283.4  3.99 1.288  5.28 13044     9   924 12112  2065  5115  2901  0.24  1646  3874  2923   385 254.9 38.10  33.1 16375 .0177  1106   193  1.20  0.98  80.3  19.1  6.44  0.00  0.00  0.00  0.00  0.00  0.00   2.0  0.00  0.01  0.00  0.00
 2023  81   202   119  20.2  -6.0 83.62 13.67  0.92  2.72 282.9  3.96 1.279  5.24 13324     9   926 12389  2063  5161  3110  0.25  1665  4084  2995   390 254.9 39.04  33.7 16375 .0190  1083   192  1.20  0.98  75.4  17.5  5.92  0.00  0.00  0.00  0.00  0.00  0.00   2.0  0.00  0.02  0.00  0.00
 2023  82   203   120  19.6  -6.0 83.96 13.67  0.92  2.72 293.7  3.93 1.270  5.20 13614     9   929 12677  2061  5219  3313  0.26  1689  4287  3085   395 254.9 39.95  34.4 16375 .0202  1061   191  1.20  0.98  70.5  16.1  5.25  0.00  0.00  0.00  0.00  0.00  0.00   2.0  0.00  0.00  0.00  0.00
 2023  83   204   121  17.6  -6.0 84.27 13.67  0.92  2.72 313.3  3.90 1.263  5.17 13924     9   932 12984  2060  5306  3495  0.27  1724  4469  3214   399 254.9 40.76  35.4 16375 .0213  1042   189  1.20  0.98  65.4  14.6  3.79  0.00  0.00  0.00  0.00  0.00  0.00   2.0  0.00  0.00  0.00  0.00
 2023  84   205   122  17.1  -6.0 84.56 13.67  0.92  2.72 300.3  3.88 1.256  5.13 14221     9   934 13278  2059  5388  3672  0.28  1757  4646  3335   403 254.9 41.56  36.2 16375 .0224  1024   188  1.20  0.98  60.6  14.3  2.94  0.00  0.00  0.00  0.00  0.00  0.00   2.0  0.00  0.00  0.00  0.00
 2023  85   206   123  17.5  -6.0 84.86 13.67  0.92  2.72 302.4  3.85 1.249  5.10 14520     9   937 13575  2057  5468  3854  0.28  1790  4827  3455   407 254.9 42.38  37.1 16375 .0235  1007   187  1.20  0.98  56.1  12.9  2.13  0.00  0.00  0.00  0.00  0.00  0.00   2.0  0.00  0.00  0.00  0.00
 2023  86   207   124  17.5  -6.0 85.17 13.67  0.92  2.72 234.5  3.82 1.242  5.07 14752     9   939 13804  2055  5500  4035  0.29  1803  5009  3507   411 254.9 43.20  37.5 16375 .0246   990   186  1.20  0.98  88.6  26.3  2.03  0.00  0.00  0.00  0.00  0.00  0.00   2.0  0.00  0.00  0.00  0.00
 2023  87   208   125  18.8  -6.0 85.49 13.67  0.92  2.72 281.5  3.80 1.235  5.03 15031     9   942 14080  2052  5557  4229  0.30  1826  5203  3593   416 254.9 44.08  38.1 16375 .0258   972   185  1.20  0.98  83.7  20.1  5.81  0.00  0.00  0.00  0.00  0.00  0.00   2.0  0.00  0.00  0.00  0.00
 2023  88   209   126  18.0  -6.0 85.80 13.67  0.91  2.72 291.0  3.77 1.228  5.00 15318     9   944 14366  2050  5625  4416  0.31  1854  5389  3696   420 254.9 44.93  38.8 16375 .0270   956   184  1.20  0.98  78.8  18.5  6.51  0.00  0.00  0.00  0.00  0.00  0.00   2.0  0.00  0.00  0.00  0.00
 2023  89   210   127  19.3  -6.0 86.14 13.67  0.91  2.72 286.8  3.74 1.220  4.96 15602     9   947 14647  2048  5682  4615  0.32  1877  5589  3782   424 254.9 45.84  39.4 16375 .0282   940   183  1.20  0.98  73.9  17.3  6.06  0.00  0.00  0.00  0.00  0.00  0.00   2.0  0.00  0.00  0.00  0.00
[...]
 2023  36   157    64  18.1  -6.0 31.67  8.68  0.58  0.65  31.8  1.12 0.143  1.26   843    15   164   664   396   267     0  0.00     0     0    52     0 125.6 2.531   7.8     0     0   496   283  0.87  0.75  37.1  20.1  0.30  1.00  0.70  0.77  0.00  0.00  0.00   2.0  0.00  0.00  0.00  0.00
 2023  37   158    65  16.7  -6.0 32.46  8.81  0.58  0.70  32.8  1.14 0.147  1.29   867    15   168   683   406   277     0  0.00     0     0    54     0 131.1 2.668   8.0     0     0   496   281  0.88  0.75  37.2  21.6  0.32  1.00  0.68  0.75  0.00  0.00  0.00   2.0  0.00  0.00  0.00  0.00
 2023  38   159    66  16.2  -6.0 33.23  8.93  0.59  0.64  33.2  1.16 0.151  1.32   891    15   173   702   416   287     0  0.00     0     0    57     0 136.6 2.804   8.1     0     0   496   280  0.89  0.75  37.3  20.1  0.30  1.00  0.70  0.77  0.00  0.00  0.00   2.0  0.00  0.00  0.00  0.00
 2023  39   160    67  18.1  -6.0 34.10  9.07  0.60  0.58  31.3  1.18 0.154  1.34   913    15   178   720   424   296     0  0.00     0     0    59     0 142.3 2.961   8.2     0     0   496   279  0.90  0.75  37.6  18.5  0.27  1.00  0.73  0.79  0.00  0.00  0.00   2.0  0.00  0.00  0.00  0.00
 2023  40   161    68  15.1  -6.0 34.82  9.19  0.60  0.59  32.7  1.20 0.158  1.35   936    15   182   738   431   307     0  0.00     0     0    63     0 149.4 3.096   8.5     0     0   496   278  0.91  0.76  37.8  19.2  0.28  1.00  0.72  0.79  0.00  0.00  0.00   2.0  0.00  0.00  0.00  0.00
 2023  41   162    69  17.1  -6.0 35.63  9.32  0.60  0.64  31.1  1.21 0.161  1.37   956    15   187   754   437   317     0  0.00     0     0    67     0 156.7 3.252   8.8     0     0   496   276  0.92  0.76  38.1  20.9  0.30  1.00  0.70  0.77  0.00  0.00  0.00   2.0  0.00  0.00  0.00  0.00
 2023  42   163    70  14.0  -6.0 36.30  9.43  0.62  1.87  33.3  1.25 0.168  1.42   987    15   190   782   456   326     0  0.00     0     0    63     0 156.7 3.383   8.1     0     0   496   275  0.93  0.82  38.2  62.9  0.87  0.25  0.13  0.33  0.00  0.00  0.00   2.0  0.00  0.00  0.00  0.00
 2023  43   164    71  15.7  -6.0 37.05  9.55  0.62  0.61  31.3  1.26 0.171  1.44  1009    15   194   799   463   337     0  0.00     0     0    66     0 162.8 3.532   8.2     0     0   490   273  0.94  0.76  38.5  21.1  0.29  1.00  0.71  0.78  0.00  0.00  0.00   2.0  0.00  0.00  0.00  0.00
 2023  44   165    72  13.9  -6.0 37.71  9.65  0.62  0.93  32.4  1.28 0.175  1.45  1032    15   199   818   470   348     0  0.00     0     0    69     0 169.1 3.667   8.4     0     0   485   271  0.95  0.78  38.6  32.9  0.44  1.00  0.56  0.67  0.00  0.00  0.00   2.0  0.00  0.00  0.00  0.00
 2023  45   166    73  13.7  -6.0 38.36  9.76  0.63  0.61  31.5  1.29 0.179  1.47  1054    15   203   836   477   360     0  0.00     0     0    72     0 175.4 3.803   8.6     0     0   479   270  0.96  0.77  38.8  21.8  0.28  1.00  0.72  0.78  0.00  0.00  0.00   2.0  0.00  0.00  0.00  0.00
 2023  46   167    74  14.2  -6.0 39.04  9.87  0.63  0.58  31.1  1.30 0.183  1.48  1076    15   207   854   483   371     0  0.00     0     0    74     0 181.8 3.947   8.7     0     0   474   268  0.97  0.77  40.1  21.7  0.27  1.00  0.73  0.79  0.00  0.00  0.00   2.0  0.00  0.00  0.00  0.00
 2023  47   168    75  14.1  -6.0 39.71  9.98  0.63  0.53  31.7  1.31 0.186  1.49  1098    15   211   872   490   382     0  0.00     0     0    77     0 188.3 4.093   8.8     0     0   469   267  0.98  0.77  39.3  19.1  0.25  1.00  0.75  0.81  0.00  0.00  0.00   2.0  0.00  0.00  0.00  0.00
 2023  48   169    76  12.8  -6.0 40.34 10.08  0.63  0.71  30.6  1.32 0.190  1.51  1120    15   215   889   495   394     0  0.00     0     0    79     0 194.8 4.228   8.9     0     0   464   266  0.99  0.78  39.4  26.9  0.33  1.00  0.67  0.75  0.00  0.00  0.00   2.0  0.00  0.00  0.00  0.00
 2023  49   170    77  17.4  -6.0 41.21 10.08  0.62  0.89  34.4  1.27 0.190  1.46  1151    15   219   916   482   425     0  0.00     0     0    97     9 194.8 4.415  10.7     0     0   458   264  1.00  0.79  45.6  32.2  0.34  1.00  0.66  0.74  0.00  0.00  0.00   2.0  0.00  0.00  0.00  0.00
 2023  50   171    78  18.8  -6.0 42.15 10.08  0.62  2.59  86.3  1.26 0.202  1.46  1232    15   227   990   479   499     0  0.00     0     0   122    13 194.8 4.621  12.5     0     0   452   263  1.01  0.85  44.3  34.8  0.98  0.04  0.02  0.25  0.00  0.00  0.00   2.0  0.00  0.00  0.00  0.00
 2023  51   172    79  18.3  -6.0 43.06 10.08  0.61  1.18  48.0  1.22 0.204  1.42  1276    15   232  1029   466   541     0  0.00     0     0   143    22 194.8 4.829  14.2     0     0   446   261  1.02  0.81  43.3  28.1  0.44  1.00  0.56  0.66  0.00  0.00  0.00   2.0  0.00  0.00  0.00  0.00
 2023  52   173    80  16.3  -6.0 43.88 10.08  0.59  1.22  45.2  1.18 0.206  1.39  1318    15   237  1065   454   581     0  0.00     0     0   163    31 194.8 5.018  15.8     0     0   441   260  1.03  0.81  43.2  32.8  0.46  1.00  0.54  0.64  0.00  0.00  0.00   2.0  0.00  0.00  0.00  0.00
 2023  53   174    81  15.3  -6.0 44.64 10.08  0.58  0.73  43.9  1.14 0.209  1.35  1358    15   242  1100   442   619     0  0.00     0     0   182    39 194.8 5.199  17.2     0     0   437   259  1.04  0.80  43.3  20.8  0.28  1.00  0.72  0.79  0.00  0.00  0.00   2.0  0.00  0.00  0.00  0.00
 2023  54   175    82  16.1  -6.0 45.45 10.08  0.57  0.70  41.3  1.11 0.210  1.32  1395    15   247  1133   430   655     0  0.00     0     0   200    48 194.8 5.395  18.5     0     0   432   258  1.06  0.80  43.5  20.6  0.27  1.00  0.73  0.80  0.00  0.00  0.00   2.0  0.00  0.00  0.00  0.00
 2023  55   176    83  13.1  -6.0 46.11 10.08  0.56  1.16  42.9  1.08 0.213  1.29  1435    15   251  1169   419   693     0  0.00     0     0   219    56 194.8 5.557  19.7     0     0   428   257  1.06  0.82  43.6  35.0  0.44  1.00  0.56  0.66  0.00  0.00  0.00   2.0  0.00  0.00  0.00  0.00
 2023  56   177    84  15.6  -6.0 46.89 10.08  0.55  1.11  39.7  1.04 0.215  1.26  1472    15   255  1201   408   730     0  0.00     0     0   237    64 194.8 5.754  20.8     0     0   424   255  1.07  0.82  43.8  34.5  0.42  1.00  0.58  0.68  0.00  0.00  0.00   2.0  0.00  0.00  0.00  0.00
 2023  57   178    85  17.0  -6.0 47.74 10.08  0.54  0.66  37.9  1.01 0.217  1.22  1507    15   259  1232   396   764     0  0.00     0     0   254    72 194.8 5.970  21.9     0     0   419   254  1.09  0.81  44.1  21.4  0.25  1.00  0.75  0.81  0.00  0.00  0.00   2.0  0.00  0.00  0.00  0.00
 2023  58   179    86  16.0  -6.0 48.54 10.08  0.52  0.67  37.6  0.97 0.218  1.19  1541    15   263  1263   385   797     0  0.00     0     0   271    80 194.8 6.178  22.9     0     0   415   253  1.10  0.81  44.4  22.2  0.25  1.00  0.75  0.80  0.00  0.00  0.00   2.0  0.00  0.00  0.00  0.00
 2023  59   180    87  16.1  -6.0 49.34 10.08  0.51  0.76  36.7  0.94 0.220  1.16  1575    15   267  1293   374   817     0  0.00    14    14   288    88 194.8 6.390  23.9     0     0   411   252  1.11  0.82  44.6  25.7  0.29  1.00  0.71  0.78  0.00  0.00  0.00   2.0  0.00  0.00  0.00  0.00
 2023  60   181    88  12.6  -6.0 49.98 10.08  0.51  2.45  39.7  0.93 0.225  1.16  1613    15   270  1328   372   830     0  0.00    37    30   301    90 194.8 6.559  24.3     0     0   408   251  1.11  0.89  44.7  84.7  0.93  0.15  0.07  0.29  0.00  0.00  0.00   2.0  0.00  0.00  0.00  0.00
 2023  61   182    89  14.6  -6.0 53.27 10.08  0.50  0.67  37.1  0.90 0.227  1.13  1647    15   273  1359   361   841     0  0.00    59    44   317    97 194.8 6.756  25.1     0     0   405   250  1.12  0.83  45.0  24.0  0.25  1.00  0.75  0.80  0.00  0.00  0.00   2.0  0.00  0.00  0.00  0.00
 2023  62   183    90  14.9  -6.0 56.71 10.08  0.49  0.65  35.8  0.88 0.231  1.11  1680    15   277  1388   353   852     0  0.00    80    57   332   103 194.8 6.960  25.8     0     0   401   249  1.13  0.83  45.2  23.6  0.25  1.00  0.75  0.81  0.00  0.00  0.00   2.0  0.00  0.00  0.00  0.00
 2023  63   184    91  14.5  -6.0 60.16 10.08  0.48  0.65  35.1  0.85 0.234  1.09  1713    15   280  1418   344   863     0  0.00   101    71   347   109 194.8 7.160  26.5     0     0   398   248  1.14  0.84  45.4  24.0  0.24  1.00  0.76  0.81  0.00  0.00  0.00   2.0  0.00  0.00  0.00  0.00
 2023  64   185    92  15.5  -6.0 70.13 10.08  0.47  0.62  33.6  0.83 0.238  1.07  1745    15   282  1447   336   874     0  0.00   122    84   361   115 194.8 7.376  27.1     0     0   395   247  1.15  0.85  45.7  23.6  0.24  1.00  0.76  0.82  0.00  0.00  0.00   2.0  0.00  0.00  0.00  0.00
 2023  65   186    93  16.9  -6.0 70.96 10.08  0.46  0.63  32.3  0.81 0.241  1.05  1775    15   285  1475   328   883     1  0.00   142    97   375   121 194.8 7.615  27.7  3436 .0000   391   246  1.16  0.86  46.0  24.6  0.24  1.00  0.76  0.82  0.00  0.00  0.00   2.0  0.00  0.00  0.00  0.00
 2023  66   187    94  16.9  -6.0 71.79 10.08  0.45  0.82  31.8  0.78 0.244  1.03  1805    15   287  1503   320   890     4  0.00   162   114   385   126 194.8 7.855  28.1  3436 .0001   387   245  1.18  0.88  46.4  32.6  0.31  1.00  0.69  0.76  0.00  0.00  0.00   2.0  0.00  0.00  0.00  0.00
 2023  67   188    95  18.4  -6.0 72.69 10.08  0.44  0.68  30.4  0.76 0.247  1.01  1834    15   289  1530   311   893    12  0.01   181   134   391   132 194.8 8.119  28.3  3436 .0004   384   244  1.19  0.89  46.8  27.9  0.26  1.00  0.74  0.80  0.00  0.00  0.00   2.0  0.00  0.00  0.00  0.00
 2023  68   189    96  19.7  -6.0 73.66 10.08  0.43  0.61  29.0  0.74 0.250  0.99  1861    15   290  1556   303   892    25  0.02   198   158   392   138 194.8 8.403  28.2  3436 .0007   380   243  1.20  0.90  47.3  25.8  0.23  1.00  0.77  0.82  0.00  0.00  0.00   2.0  0.00  0.00  0.00  0.00
 2023  69   190    97  19.4  -6.0 74.61 10.08  0.42  0.59  28.5  0.71 0.248  0.96  1889    15   291  1582   295   894    42  0.03   207   175   407   144 194.8 8.684  29.2  3436 .0012   376   242  1.20  0.91  46.9  25.3  0.22  1.00  0.78  0.83  0.00  0.00  0.00   2.0  0.00  0.00  0.00  0.00
 2023  70   191    98  19.6  -6.0 75.58 10.08  0.41  0.60  27.8  0.69 0.246  0.94  1915    15   292  1608   287   898    63  0.04   210   197   417   149 194.8 8.971  29.9  3436 .0018   373   240  1.20  0.93  46.5  25.9  0.23  1.00  0.77  0.83  0.00  0.00  0.00   2.0  0.00  0.00  0.00  0.00
 2023  71   192    99  22.8  -6.0 76.69 10.08  0.40  0.57  25.7  0.67 0.244  0.91  1940    15   293  1632   279   895    93  0.06   210   227   417   155 194.8 9.303  30.1  3436 .0027   369   239  1.20  0.94  46.1  24.9  0.21  1.00  0.79  0.84  0.00  0.00  0.00   2.0  0.00  0.18  0.00  0.00
 2023  72   193   100  22.0  -6.0 77.77 10.08  0.39  0.57  25.5  0.65 0.242  0.89  1965    15   293  1656   271   887   128  0.08   209   262   411   160 194.8 9.625  30.1  3436 .0037   365   238  1.20  0.95  45.7  25.3  0.21  1.00  0.79  0.84  0.00  0.00  0.00   2.0  0.00  0.13  0.00  0.00
 2023  73   194   101  19.8  -6.0 78.75 10.08  0.38  0.57  25.8  0.62 0.240  0.86  1990    15   293  1681   264   879   165  0.10   208   299   405   166 194.8 9.915  30.0  3436 .0048   362   237  1.20  0.97  45.3  26.0  0.22  1.00  0.78  0.83  0.00  0.00  0.00   2.0  0.00  0.00  0.00  0.00
 2023  74   195   102  19.5  -6.0 79.70 10.08  0.37  0.66  25.4  0.60 0.239  0.84  2015    15   293  1706   256   868   205  0.12   206   339   395   171 194.8 10.20  29.7  3436 .0060   359   236  1.20  0.98  44.9  30.3  0.25  1.00  0.75  0.81  0.00  0.00  0.00   2.0  0.00  0.00  0.00  0.00
 2023  75   196   103  20.5  -6.0 80.27 10.08  0.36  0.71  24.5  0.58 0.237  0.82  2039    15   293  1730   249   851   253  0.15   202   386   376   176 194.8 10.50  28.9  3436 .0074   356   235  1.20  0.98  44.5  33.3  0.27  1.00  0.73  0.79  0.00  0.00  0.00   2.0  0.00  0.03  0.00  0.00
 2023  76   197   104  20.0  -6.0 80.65 10.08  0.36  1.70  24.5  0.58 0.235  0.82  2063    15   293  1754   249   831   301  0.17   196   435   352   176 194.8 10.80  27.6  3436 .0088   353   233  1.20  0.98  55.4  99.9  0.64  0.71  0.36  0.51  0.00  0.00  0.00   2.0  0.00  0.00  0.00  0.00
 2023  77   198   105  19.0  -6.0 81.00 10.08  0.36  2.65 103.3  0.58 0.234  0.81  2165    15   294  1855   249   874   347  0.19   208   481   408   177 194.8 11.07  30.7  3436 .0101   350   232  1.20  0.98  81.1  54.0  1.95  0.00  0.00  0.00  0.00  0.00  0.00   2.0  0.00  0.00  0.00  0.00
 2023  78   199   106  19.0  -6.0 81.36 10.08  0.36  2.65 108.0  0.57 0.232  0.81  2272    15   295  1961   248   921   394  0.20   221   527   468   177 194.8 11.35  33.7  3436 .0115   348   231  1.20  0.98  77.1  49.1  4.69  0.00  0.00  0.00  0.00  0.00  0.00   2.0  0.00  0.00  0.00  0.00
 2023  79   200   107  19.0  -6.0 81.72 10.08  0.35  2.65 106.7  0.57 0.231  0.80  2377    15   296  2066   248   966   440  0.21   234   573   527   178 194.8 11.64  36.4  3436 .0128   345   230  1.20  0.98  75.4  49.6  4.86  0.00  0.00  0.00  0.00  0.00  0.00   2.0  0.00  0.00  0.00  0.00
 2023  80   201   108  20.1  -6.0 82.09 10.08  0.35  2.65 105.3  0.57 0.229  0.80  2482    15   297  2169   248  1008   489  0.23   246   622   582   179 194.8 11.93  38.8  3436 .0142   343   229  1.20  0.98  73.8  48.9  4.73  0.00  0.00  0.00  0.00  0.00  0.00   2.0  0.00  0.01  0.00  0.00
 2023  81   202   109  20.2  -6.0 82.47 10.08  0.35  2.65 104.8  0.57 0.227  0.79  2585    15   298  2272   248  1050   538  0.24   257   671   637   179 194.8 12.23  40.9  3436 .0156   340   228  1.20  0.98  72.1  46.8  3.74  0.00  0.00  0.00  0.00  0.00  0.00   2.0  0.00  0.02  0.00  0.00
 2023  82   203   110  19.6  -6.0 82.84 10.08  0.35  2.65 108.6  0.56 0.226  0.79  2693    15   299  2378   247  1096   585  0.25   270   719   696   180 194.8 12.53  43.1  3436 .0170   338   228  1.20  0.98  70.5  45.1  3.08  0.00  0.00  0.00  0.00  0.00  0.00   2.0  0.00  0.00  0.00  0.00
 2023  83   204   111  17.6  -6.0 83.17 10.08  0.35  2.65 115.5  0.56 0.225  0.79  2807    15   300  2491   247  1151   628  0.25   285   761   767   180 194.8 12.79  45.6  3436 .0183   336   227  1.20  0.98  68.8  43.0  2.59  0.00  0.00  0.00  0.00  0.00  0.00   2.0  0.00  0.00  0.00  0.00
 2023  84   205   112  17.1  -6.0 83.49 10.08  0.35  2.65 110.5  0.56 0.224  0.78  2916    15   301  2600   247  1203   669  0.26   300   803   835   181 194.8 13.05  47.7  3436 .0195   334   226  1.20  0.98  67.2  44.4  2.42  0.00  0.00  0.00  0.00  0.00  0.00   2.0  0.00  0.00  0.00  0.00
 2023  85   206   113  17.5  -6.0 83.81 10.08  0.35  2.65 111.0  0.56 0.222  0.78  3026    15   302  2708   247  1255   712  0.26   314   845   901   181 194.8 13.31  49.6  3436 .0207   333   225  1.20  0.98  65.5  42.4  2.00  0.00  0.00  0.00  0.00  0.00  0.00   2.0  0.00  0.00  0.00  0.00
 2023  86   207   114  17.5  -6.0 84.14 10.08  0.34  2.65  85.9  0.55 0.221  0.77  3111    15   303  2793   247  1287   754  0.27   323   888   944   182 194.8 13.58  50.8  3436 .0219   331   224  1.20  0.98  64.3  53.7  2.17  0.00  0.00  0.00  0.00  0.00  0.00   2.0  0.00  0.00  0.00  0.00
 2023  87   208   115  18.8  -6.0 84.49 10.08  0.34  2.65 102.9  0.55 0.220  0.77  3213    15   304  2894   246  1330   799  0.28   335   933  1000   182 194.8 13.86  52.3  3436 .0233   329   223  1.20  0.98  62.7  42.6  1.55  0.00  0.00  0.00  0.00  0.00  0.00   2.0  0.00  0.00  0.00  0.00
 2023  88   209   116  18.0  -6.0 84.83 10.08  0.34  2.65 106.2  0.55 0.219  0.77  3318    15   305  2998   246  1378   843  0.28   348   977  1061   183 194.8 14.13  53.8  3436 .0245   328   223  1.20  0.98  61.2  40.7  1.31  0.00  0.00  0.00  0.00  0.00  0.00   2.0  0.00  0.00  0.00  0.00
 2023  89   210   117  19.3  -6.0 85.19 10.08  0.34  2.65 104.4  0.54 0.217  0.76  3421    15   306  3100   246  1421   890  0.29   360  1023  1117   183 194.8 14.43  55.1  3436 .0259   326   222  1.20  0.98  59.6  39.5  1.12  0.00  0.00  0.13  0.00  0.00  0.00   2.0  0.00  0.00  0.00  0.00
 2023  90   211   118  18.7  -6.0 85.54 10.08  0.34  2.39 103.7  0.54 0.216  0.76  3524    15   307  3202   245  1465   935  0.29   372  1069  1174   184 194.8 14.72  56.4  3436 .0272   324   221  1.20  0.98  58.1  35.6  0.90  0.19  0.10  0.31  0.00  0.00  0.00   2.0  0.00  0.00  0.00  0.00
 2023  91   212   119  19.4  -6.0 85.91 10.08  0.32  2.11  88.8  0.51 0.215  0.73  3612    15   308  3289   233  1498   982  0.30   383  1116  1222   192 194.8 15.01  57.8  3436 .0286   323   220  1.20  0.98  56.8  35.2  0.80  0.40  0.20  0.39  0.00  0.00  0.00   2.0  0.00  0.00  0.00  0.00
 2023  92   213   120  20.8  -6.0 86.30 10.08  0.31  1.97  77.3  0.48 0.214  0.70  3688    15   308  3364   220  1521  1033  0.31   391  1166  1255   200 194.8 15.33  58.9  3436 .0300   321   219  1.20  0.98  55.6  36.0  0.74  0.51  0.26  0.43  0.00  0.00  0.00   2.0  0.00  0.06  0.00  0.00
 2023  93   214   121  18.6  -6.0 86.64 10.08  0.29  2.04  72.7  0.45 0.213  0.66  3760    15   309  3436   206  1544  1078  0.31   400  1211  1290   208 194.8 15.62  60.0  3436 .0314   320   219  1.20  0.98  54.5  40.4  0.77  0.46  0.23  0.41  0.00  0.00  0.00   2.0  0.00  0.00  0.00  0.00
 2023  94   215   122  17.1  -6.0 86.97 10.08  0.28  1.89  69.9  0.42 0.212  0.63  3829    15   310  3504   193  1567  1119  0.32   408  1253  1324   216 194.8 15.89  61.1  3436 .0326   319   218  1.20  0.98  53.5  40.1  0.71  0.57  0.29  0.45  0.00  0.00  0.00   2.0  0.00  0.00  0.00  0.00
 2023  95   216   123  15.9  -6.0 87.26 10.08  0.26  1.92  66.2  0.39 0.211  0.61  3894    15   310  3569   182  1591  1157  0.32   416  1291  1358   223 194.8 16.13  62.1  3436 .0337   317   217  1.20  0.98  52.6  43.4  0.73  0.55  0.27  0.44  0.00  0.00  0.00   2.0  0.00  0.00  0.00  0.00
 2023  96   217   124  15.9  -6.0 87.56 10.08  0.25  1.78  60.7  0.37 0.210  0.58  3954    15   311  3628   171  1609  1196  0.33   423  1329  1386   230 194.8 16.38  62.9  3436 .0348   316   217  1.20  0.98  51.7  42.5  0.67  0.65  0.33  0.48  0.00  0.00  0.00   2.0  0.00  0.00  0.00  0.00
 2023  97   218   125  17.3  -6.0 87.88 10.08  0.23  1.71  55.2  0.35 0.209  0.55  4009    15   311  3683   160  1621  1237  0.34   427  1371  1405   237 194.8 16.65  63.6  3436 .0360   315   216  1.20  0.98  50.9  42.9  0.65  0.71  0.35  0.50  0.00  0.00  0.00   2.0  0.00  0.00  0.00  0.00
 2023  98   219   126  19.2  -6.0 88.24 10.08  0.22  1.62  49.9  0.32 0.208  0.53  4058    15   311  3731   148  1625  1284  0.34   430  1417  1415   244 194.8 16.94  64.2  3436 .0374   314   215  1.20  0.98  50.2  42.6  0.61  0.77  0.39  0.53  0.00  0.00  0.00   2.0  0.00  0.00  0.00  0.00
 2023  99   220   127  20.0  -6.0 88.62 10.08  0.20  1.61  46.3  0.29 0.206  0.49  4104    15   312  3777   135  1621  1332  0.35   434  1466  1420   255 194.8 17.26  64.8  3436 .0388   313   214  1.20  0.98  49.5  44.1  0.61  0.79  0.39  0.53  0.00  0.00  0.00   2.0  0.00  0.00  0.00  0.00
 2023 100   221   128  19.5  -6.0 88.98 10.08  0.18  1.80  44.3  0.26 0.204  0.46  4147    15   312  3820   121  1616  1380  0.36   437  1513  1424   267 194.8 17.56  65.5  3436 .0402   312   214  1.20  0.98  48.8  51.5  0.68  0.64  0.32  0.48  0.00  0.00  0.00   2.0  0.00  0.00  0.00  0.00
 2023 101   222   129  21.5  -6.0 89.39 10.08  0.16  1.77  40.7  0.23 0.202  0.43  4187    15   312  3860   107  1604  1432  0.37   439  1565  1420   278 194.8 17.90  66.0  3436 .0417   310   213  1.20  0.98  48.1  52.4  0.67  0.66  0.33  0.49  0.00  0.00  0.00   2.0  0.00  0.10  0.00  0.00
 2023 102   223   130  20.7  -6.0 89.77 10.08  0.14  1.95  39.7  0.19 0.200  0.39  4227    15   312  3899    92  1594  1482  0.38   441  1615  1418   291 194.8 18.22  66.7  3436 .0431   309   212  1.20  0.98  47.5  59.8  0.74  0.53  0.26  0.43  0.00  0.00  0.00   2.0  0.00  0.04  0.00  0.00
 2023 103   224   131  20.1  -6.0 90.40 10.08  0.12  2.63  39.0  0.16 0.198  0.36  4265    15   312  3937    77  1598  1512  0.38   448  1645  1435   303 194.8 18.53  67.6  3436 .0440   308   211  1.20  0.98  46.9  83.4  0.99  0.01  0.01  0.24  0.00  0.00  0.00   2.0  0.00  0.01  0.00  0.00
