*SIMULATION OVERVIEW FILE
  

*DSSAT Cropping System Model Ver. 4.8.2.000 -release  JUL 07, 2025 11:09:34

*RUN   1        : WW23_G-1                  CSCER048 CIOB2301    1
 MODEL          : CSCER048 - Wheat
 EXPERIMENT     : CIOB2301 WH ROOTS ANATOMY
 DATA PATH      : C:\DSSAT48\Wheat\
 TREATMENT  1   : WW23_G-1                  CSCER048


 CROP           : Wheat            CULTIVAR : ENTRY 1          ECOTYPE :AZWH18
 STARTING DATE  : SEP  1 2022
 PLANTING DATE  : NOV 23 2022      PLANTS/m2 :   137.0    ROW SPACING :  20.cm
 WEATHER        : CIOB   2022
 SOIL           : CCENEB2301     TEXTURE : C     -   CIMMYT CENEB 710
 SOIL INIT COND : DEPTH:120cm EXTR. H2O: 82.8mm  NO3:484.0kg/ha  NH4:341.8kg/ha
 WATER BALANCE  : IRRIGATE ON REPORTED DATE(S)
 IRRIGATION     :      525 mm IN     9 APPLICATIONS
 NITROGEN BAL.  : SOIL-N & N-UPTAKE SIMULATION; NO N-FIXATION
 N-FERTILIZER   :      323 kg/ha IN     3 APPLICATIONS
 RESIDUE/MANURE : INITIAL :     0 kg/ha ;    2222 kg/ha IN     1 APPLICATIONS
 ENVIRONM. OPT. : DAYL=    0.00  SRAD=    0.00  TMAX=    0.00  TMIN=    0.00
                  RAIN=    0.00  CO2 =    0.00  DEW =    0.00  WIND=    0.00
 SIMULATION OPT : WATER   :Y  NITROGEN:Y  N-FIX:N  PHOSPH :N  PESTS  :N
                  PHOTO   :C  ET      :R  INFIL:S  HYDROL :R  SOM    :G
                  CO2 418ppm  NSWIT   :1  EVAP :R  SOIL   :2  STEMP  :D
 MANAGEMENT OPT : PLANTING:R  IRRIG   :R  FERT :R  RESIDUE:R  HARVEST:M
                  WEATHER :M  TILLAGE :Y

*SUMMARY OF SOIL AND GENETIC INPUT PARAMETERS

   SOIL LOWER UPPER   SAT  EXTR  INIT   ROOT   BULK     pH    NO3    NH4    ORG
  DEPTH LIMIT LIMIT    SW    SW    SW   DIST   DENS                          C
   cm   cm3/cm3    cm3/cm3    cm3/cm3         g/cm3         ugN/g  ugN/g     %
-------------------------------------------------------------------------------
  0-  5 0.143 0.204 0.268 0.061 0.172   1.00   1.35   8.50  29.00  29.00   1.08
  5- 15 0.143 0.204 0.268 0.061 0.172   1.00   1.35   8.50  29.00  29.00   1.08
 15- 30 0.143 0.204 0.268 0.061 0.172   1.00   1.35   8.50  29.00  29.00   1.08
 30- 45 0.166 0.234 0.274 0.068 0.225   0.41   1.58   8.50  27.00  16.00   0.80
 45- 60 0.166 0.234 0.274 0.068 0.225   0.41   1.58   8.50  27.00  16.00   0.80
 60- 90 0.155 0.227 0.276 0.072 0.207   0.22   1.50   7.90  53.00  33.00   0.87
 90-120 0.188 0.263 0.308 0.075 0.263   0.12   1.38   8.00   0.01   0.01   0.40

TOT-120  19.6  27.8  33.8   8.3  26.0  <--cm   -  kg/ha-->  484.0  341.8 137370
SOIL ALBEDO    : 0.13      EVAPORATION LIMIT : 6.00         MIN. FACTOR  : 1.00
RUNOFF CURVE # :61.00      DRAINAGE RATE     : 0.60         FERT. FACTOR : 1.00

 Wheat            CULTIVAR: 555175-ENTRY 1            ECOTYPE: AZWH18
   P1V   P1D    P5    G1    G2    G3 PHINT
   5.1   1.1 479.5  18.0  48.5  8.00 150.0


*SIMULATED CROP AND SOIL STATUS AT MAIN DEVELOPMENT STAGES
  
 RUN NO.      1   ROOTS ANATOMY                                               

 ...... DATE ......  GROWTH STAGE BIOMASS   LEAF       CROP N      STRESS
 YEARDOY DOM MON DAP ............. kg/ha AREA NUMBER  kg/ha   %   H2O    N
 2022327  23 Nov   0 7 Sowing         0  0.00   0.0     0   0.0  0.00  0.00
 2022328  24 Nov   1 8 Germinate      0  0.00   0.0     0   0.0  0.00  0.00
 2022330  26 Nov   3 9 Emergence      0  0.00   0.0     0   0.0  0.00  0.00
 2023026  26 Jan  64 1 Term Spklt  1686  0.96   7.8    22   1.3  0.01  0.00
 2023048  17 Feb  86 2 End Veg     4812  3.06  10.0    62   1.3  0.00  0.00
 2023062   3 Mar 100 3 End Ear Gr  7389  2.65  10.0    58   0.8  0.00  0.00
 2023073  14 Mar 111 4 Beg Gr Fil 10063  2.32  10.0    68   0.7  0.07  0.00
 2023099   9 Apr 137 5 End Gr Fil 16349  0.84  10.0   186   1.1  0.00  0.00
 2023099   9 Apr 137 6 Harvest    16349  0.84  10.0   186   1.1  0.00  0.00
  
 BIOMASS = Above-ground dry wt (kg/ha)
 LEAF AREA  = Leaf area index (m2/m2)
 LEAF NUMBER  = Leaf number produced on main axis
 CROP N  = Above-ground N (kg/ha)
 CROP N% = Above-ground N conc (%)
 H2O STRESS = Photosynthesis stress,average (0-1,0=none)
 N STRESS = Photosynthesis stress,average (0-1,0=none)
  

*MAIN GROWTH AND DEVELOPMENT VARIABLES

@     VARIABLE                             SIMULATED     MEASURED
      --------                             ---------     --------
      Emergence (DAP)                            3            7
      Anthesis (DAP)                           103           97
      Maturity (DAP)                           137          140
      Product wt (kg dm/ha;no loss)           7050         6797
      Product unit weight (g dm)             0.049        0.047
      Product number (no/m2)                 14535        14451
      Product number (no/group)               54.9        -99.0
      Product harvest index (ratio)           0.43         0.43
      Maximum leaf area index                  3.1          5.7
      Final leaf number (one axis)            10.0        -99.0
      Final shoot number (#/m2)                265          -99
      Canopy (tops) wt (kg dm/ha)            16349        15757
      Vegetative wt (kg dm/ha)                9299         8960
      Root wt (kg dm/ha)                      1023          -99
      Assimilate wt (kg dm/ha)               18146          -99
      Senesced wt (kg dm/ha)                    97          -99
      Reserves wt (kg dm/ha)                  5074          -99
      N uptake (kg/ha)                       203.9        -99.0
      N senesced (kg/ha)                       1.3        -99.0
      Above-ground N (kg/ha)                 186.2        -99.0
      Root N (kg/ha)                          17.2        -99.0
      Vegetative N (kg/ha)                    25.9        -99.0
      Product N (kg/ha)                      160.3        139.5
      Product N harvest index (ratio)         0.86       -99.00
      Product N (%)                            2.3          2.1
      Vegetative N (%)                         0.3        -99.0
      Leaf+stem wt,anthesis (kg dm/ha)        8022          -99
      Leaf+stem N,anthesis (kg/ha)            57.7        -99.0
      Leaf N,anthesis (%)                      3.0        -99.0

  Seed N must be added to N uptake to obtain a         
  balance with N in above-ground plus root material    

  Measured data are obtained from the A file,either    
  directly or by calculation from other other variables
  using the expressions given below:                   
                                                       
  Product wt       Harvest wt (HWAH) /                 
                               (Harvest%/100) (HPC)    
  Canopy wt        Grain wt (HWAM)+Vegetative wt (VWAm)
  Vegetative wt    Canopy wt (CWAM) - grain wt (HWAM)  
    = leaf+stem+retained dead material                 
  Product unit wt  Grain yield (HWAM)/Grain # (G#AM)   
  Product #/area   Product#/tiller (H#SM) *            
                                   tiller number (T#AM)
  Product #/group  Product#/area (H#AM) /              
                                tiller number (T#AM)   
  Harvest index    Product wt (HWAM)/Canopy wt.(CWAM)  
                                                       
  The same procedure is followed for nitrogen aspects  


*ENVIRONMENTAL AND STRESS FACTORS

 |-----Development Phase------|-------------Environment--------------|----------------Stress-----------------|
                              |--------Average-------|---Cumulative--|         (0=Min, 1=Max Stress)         |
                         Time  Temp  Temp Solar Photop         Evapo |----Water---|--Nitrogen--|--Phosphorus-|
                         Span   Max   Min   Rad  [day]   Rain  Trans  Photo         Photo         Photo
                         days    °C    °C MJ/m2     hr     mm     mm  synth Growth ' synth Growth  synth Growth
--------------------------------------------------------------------------------------------------------------
 Germinate  - Term Spklt   61  26.3   7.2  14.3  11.35   10.0   81.6  0.008  0.037  0.000  0.000 -99.00 -99.00
 Term Spklt - End Veg      22  24.9   5.5  15.7  11.79    3.6   59.3  0.000  0.001  0.000  0.000 -99.00 -99.00
 End Veg    - End Ear Gr   14  23.5   8.3  16.0  12.19    8.7   44.7  0.000  0.000  0.000  0.000 -99.00 -99.00
 End Ear Gr - Beg Gr Fil   11  30.0   7.4  21.6  12.51    0.0   46.9  0.073  0.137  0.000  0.000 -99.00 -99.00
 Beg Gr Fil - End Gr Fil   26  28.7   8.7  23.0  13.02   65.8  104.8  0.000  0.003  0.000  0.000 -99.00 -99.00
  
 Germinate  - End Gr Fil  134  26.5   7.3  17.0  11.93   88.1  337.3  0.010  0.029  0.000  0.000 -99.00 -99.00
--------------------------------------------------------------------------------------------------------------


*RESOURCE PRODUCTIVITY

 Growing season length: 134 days 

 Precipitation during growth season         88.1 mm[rain]
   Dry Matter Productivity                 18.56 kg[DM]/m3[rain]          =  185.6 kg[DM]/ha per mm[rain]
   Yield Productivity                       8.00 kg[grain yield]/m3[rain] =   80.0 kg[yield]/ha per mm[rain]

 Evapotranspiration during growth season   337.3 mm[ET]
   Dry Matter Productivity                  4.85 kg[DM]/m3[ET]            =   48.5 kg[DM]/ha per mm[ET]
   Yield Productivity                       2.09 kg[grain yield]/m3[ET]   =   20.9 kg[yield]/ha per mm[ET]

 Transpiration during growth season        241.6 mm[EP]
   Dry Matter Productivity                  6.77 kg[DM]/m3[EP]            =   67.7 kg[DM]/ha per mm[EP]
   Yield Productivity                       2.92 kg[grain yield]/m3[EP]   =   29.2 kg[yield]/ha per mm[EP]

 Irrigation during growing season          525.1 mm[irrig]
   Dry Matter Productivity                  3.11 kg[DM]/m3[irrig]         =   31.1 kg[DM]/ha per mm[irrig]
   Yield Productivity                       1.34 kg[grain yield]/m3[irrig]=   13.4 kg[yield]/ha per mm[irrig]

 N applied during growing season           323.0 kg[N applied]/ha
   Dry Matter Productivity                  50.6 kg[DM]/kg[N applied]
   Yield Productivity                       21.8 kg[yield]/kg[N applied]

 N uptake during growing season            203.9 kg[N uptake]/ha
   Dry Matter Productivity                  80.2 kg[DM]/kg[N uptake]
   Yield Productivity                       34.6 kg[yield]/kg[N uptake]

--------------------------------------------------------------------------------------------------------------

          WHEAT YIELD :     7050 kg/ha    [Dry weight] 

**************************************************************************************************************
  

*DSSAT Cropping System Model Ver. 4.8.2.000 -release  JUL 07, 2025 11:09:34

*RUN   2        : WW23_G-2                  CSCER048 CIOB2301    2
 MODEL          : CSCER048 - Wheat
 EXPERIMENT     : CIOB2301 WH ROOTS ANATOMY
 DATA PATH      : C:\DSSAT48\Wheat\
 TREATMENT  2   : WW23_G-2                  CSCER048


 CROP           : Wheat            CULTIVAR : ENTRY 2          ECOTYPE :AZWH18
 STARTING DATE  : SEP  1 2022
 PLANTING DATE  : NOV 23 2022      PLANTS/m2 :   137.0    ROW SPACING :  20.cm
 WEATHER        : CIOB   2022
 SOIL           : CCENEB2301     TEXTURE : C     -   CIMMYT CENEB 710
 SOIL INIT COND : DEPTH:120cm EXTR. H2O: 82.8mm  NO3:484.0kg/ha  NH4:341.8kg/ha
 WATER BALANCE  : IRRIGATE ON REPORTED DATE(S)
 IRRIGATION     :      525 mm IN     9 APPLICATIONS
 NITROGEN BAL.  : SOIL-N & N-UPTAKE SIMULATION; NO N-FIXATION
 N-FERTILIZER   :      323 kg/ha IN     3 APPLICATIONS
 RESIDUE/MANURE : INITIAL :     0 kg/ha ;    2222 kg/ha IN     1 APPLICATIONS
 ENVIRONM. OPT. : DAYL=    0.00  SRAD=    0.00  TMAX=    0.00  TMIN=    0.00
                  RAIN=    0.00  CO2 =    0.00  DEW =    0.00  WIND=    0.00
 SIMULATION OPT : WATER   :Y  NITROGEN:Y  N-FIX:N  PHOSPH :N  PESTS  :N
                  PHOTO   :C  ET      :R  INFIL:S  HYDROL :R  SOM    :G
                  CO2 418ppm  NSWIT   :1  EVAP :R  SOIL   :2  STEMP  :D
 MANAGEMENT OPT : PLANTING:R  IRRIG   :R  FERT :R  RESIDUE:R  HARVEST:M
                  WEATHER :M  TILLAGE :Y

*SUMMARY OF SOIL AND GENETIC INPUT PARAMETERS

   SOIL LOWER UPPER   SAT  EXTR  INIT   ROOT   BULK     pH    NO3    NH4    ORG
  DEPTH LIMIT LIMIT    SW    SW    SW   DIST   DENS                          C
   cm   cm3/cm3    cm3/cm3    cm3/cm3         g/cm3         ugN/g  ugN/g     %
-------------------------------------------------------------------------------
  0-  5 0.143 0.204 0.268 0.061 0.172   1.00   1.35   8.50  29.00  29.00   1.08
  5- 15 0.143 0.204 0.268 0.061 0.172   1.00   1.35   8.50  29.00  29.00   1.08
 15- 30 0.143 0.204 0.268 0.061 0.172   1.00   1.35   8.50  29.00  29.00   1.08
 30- 45 0.166 0.234 0.274 0.068 0.225   0.41   1.58   8.50  27.00  16.00   0.80
 45- 60 0.166 0.234 0.274 0.068 0.225   0.41   1.58   8.50  27.00  16.00   0.80
 60- 90 0.155 0.227 0.276 0.072 0.207   0.22   1.50   7.90  53.00  33.00   0.87
 90-120 0.188 0.263 0.308 0.075 0.263   0.12   1.38   8.00   0.01   0.01   0.40

TOT-120  19.6  27.8  33.8   8.3  26.0  <--cm   -  kg/ha-->  484.0  341.8 137370
SOIL ALBEDO    : 0.13      EVAPORATION LIMIT : 6.00         MIN. FACTOR  : 1.00
RUNOFF CURVE # :61.00      DRAINAGE RATE     : 0.60         FERT. FACTOR : 1.00

 Wheat            CULTIVAR: 457793-ENTRY 2            ECOTYPE: AZWH18
   P1V   P1D    P5    G1    G2    G3 PHINT
   7.0   5.0 450.0  13.9  58.3  4.40  94.3


*SIMULATED CROP AND SOIL STATUS AT MAIN DEVELOPMENT STAGES
  
 RUN NO.      2   ROOTS ANATOMY                                               

 ...... DATE ......  GROWTH STAGE BIOMASS   LEAF       CROP N      STRESS
 YEARDOY DOM MON DAP ............. kg/ha AREA NUMBER  kg/ha   %   H2O    N
 2022327  23 Nov   0 7 Sowing         0  0.00   0.0     0   0.0  0.00  0.00
 2022328  24 Nov   1 8 Germinate      0  0.00   0.0     0   0.0  0.00  0.00
 2022330  26 Nov   3 9 Emergence      0  0.00   0.0     0   0.0  0.00  0.00
 2023029  29 Jan  67 1 Term Spklt  3800  5.47  12.3   135   3.6  0.06  0.00
 2023050  19 Feb  88 2 End Veg     7402 11.53  15.8   251   3.4  0.00  0.01
 2023065   6 Mar 103 3 End Ear Gr 10676  9.84  15.8   247   2.3  0.02  0.00
 2023075  16 Mar 113 4 Beg Gr Fil 13531  8.60  15.8   247   1.8  0.02  0.00
 2023099   9 Apr 137 5 End Gr Fil 20695  3.14  15.8   277   1.3  0.07  0.00
 2023099   9 Apr 137 6 Harvest    20695  3.14  15.8   277   1.3  0.61  0.00
  

*MAIN GROWTH AND DEVELOPMENT VARIABLES

@     VARIABLE                             SIMULATED     MEASURED
      --------                             ---------     --------
      Emergence (DAP)                            3            7
      Anthesis (DAP)                           106           96
      Maturity (DAP)                           137          139
      Product wt (kg dm/ha;no loss)           9149         6933
      Product unit weight (g dm)             0.058        0.042
      Product number (no/m2)                 15693        16392
      Product number (no/group)               29.0        -99.0
      Product harvest index (ratio)           0.44         0.41
      Maximum leaf area index                 11.5          6.1
      Final leaf number (one axis)            15.8        -99.0
      Final shoot number (#/m2)                540          -99
      Canopy (tops) wt (kg dm/ha)            20695        16796
      Vegetative wt (kg dm/ha)               11547         9863
      Root wt (kg dm/ha)                      1493          -99
      Assimilate wt (kg dm/ha)               23580          -99
      Senesced wt (kg dm/ha)                   382          -99
      Reserves wt (kg dm/ha)                  3309          -99
      N uptake (kg/ha)                       306.1        -99.0
      N senesced (kg/ha)                       5.3        -99.0
      Above-ground N (kg/ha)                 276.8        -99.0
      Root N (kg/ha)                          24.9        -99.0
      Vegetative N (kg/ha)                    72.1        -99.0
      Product N (kg/ha)                      204.7        142.3
      Product N harvest index (ratio)         0.74       -99.00
      Product N (%)                            2.2          2.1
      Vegetative N (%)                         0.6        -99.0
      Leaf+stem wt,anthesis (kg dm/ha)       11400          -99
      Leaf+stem N,anthesis (kg/ha)           246.7        -99.0
      Leaf N,anthesis (%)                      3.0        -99.0

*ENVIRONMENTAL AND STRESS FACTORS

 |-----Development Phase------|-------------Environment--------------|----------------Stress-----------------|
                              |--------Average-------|---Cumulative--|         (0=Min, 1=Max Stress)         |
                         Time  Temp  Temp Solar Photop         Evapo |----Water---|--Nitrogen--|--Phosphorus-|
                         Span   Max   Min   Rad  [day]   Rain  Trans  Photo         Photo         Photo
                         days    °C    °C MJ/m2     hr     mm     mm  synth Growth ' synth Growth  synth Growth
--------------------------------------------------------------------------------------------------------------
 Germinate  - Term Spklt   64  26.2   7.1  14.4  11.36   10.0  109.0  0.056  0.113  0.000  0.000 -99.00 -99.00
 Term Spklt - End Veg      21  24.9   6.3  15.3  11.84   11.8   62.9  0.004  0.021  0.013  0.013 -99.00 -99.00
 End Veg    - End Ear Gr   15  24.3   6.7  17.9  12.25    0.5   50.9  0.023  0.051  0.000  0.000 -99.00 -99.00
 End Ear Gr - Beg Gr Fil   10  30.4   9.3  21.0  12.58    0.0   44.4  0.023  0.041  0.000  0.000 -99.00 -99.00
 Beg Gr Fil - End Gr Fil   24  28.6   8.6  23.3  13.05   65.8  107.6  0.073  0.099  0.000  0.000 -99.00 -99.00
  
 Germinate  - End Gr Fil  134  26.5   7.3  17.0  11.93   88.1  374.8  0.044  0.084  0.002  0.002 -99.00 -99.00
--------------------------------------------------------------------------------------------------------------


*RESOURCE PRODUCTIVITY

 Growing season length: 134 days 

 Precipitation during growth season         88.1 mm[rain]
   Dry Matter Productivity                 23.49 kg[DM]/m3[rain]          =  234.9 kg[DM]/ha per mm[rain]
   Yield Productivity                      10.38 kg[grain yield]/m3[rain] =  103.8 kg[yield]/ha per mm[rain]

 Evapotranspiration during growth season   374.8 mm[ET]
   Dry Matter Productivity                  5.52 kg[DM]/m3[ET]            =   55.2 kg[DM]/ha per mm[ET]
   Yield Productivity                       2.44 kg[grain yield]/m3[ET]   =   24.4 kg[yield]/ha per mm[ET]

 Transpiration during growth season        327.8 mm[EP]
   Dry Matter Productivity                  6.31 kg[DM]/m3[EP]            =   63.1 kg[DM]/ha per mm[EP]
   Yield Productivity                       2.79 kg[grain yield]/m3[EP]   =   27.9 kg[yield]/ha per mm[EP]

 Irrigation during growing season          525.1 mm[irrig]
   Dry Matter Productivity                  3.94 kg[DM]/m3[irrig]         =   39.4 kg[DM]/ha per mm[irrig]
   Yield Productivity                       1.74 kg[grain yield]/m3[irrig]=   17.4 kg[yield]/ha per mm[irrig]

 N applied during growing season           323.0 kg[N applied]/ha
   Dry Matter Productivity                  64.1 kg[DM]/kg[N applied]
   Yield Productivity                       28.3 kg[yield]/kg[N applied]

 N uptake during growing season            306.1 kg[N uptake]/ha
   Dry Matter Productivity                  67.6 kg[DM]/kg[N uptake]
   Yield Productivity                       29.9 kg[yield]/kg[N uptake]

--------------------------------------------------------------------------------------------------------------

          WHEAT YIELD :     9149 kg/ha    [Dry weight] 

**************************************************************************************************************
  

*DSSAT Cropping System Model Ver. 4.8.2.000 -release  JUL 07, 2025 11:09:34

*RUN   3        : WW23_G-3                  CSCER048 CIOB2301    3
 MODEL          : CSCER048 - Wheat
 EXPERIMENT     : CIOB2301 WH ROOTS ANATOMY
 DATA PATH      : C:\DSSAT48\Wheat\
 TREATMENT  3   : WW23_G-3                  CSCER048


 CROP           : Wheat            CULTIVAR : ENTRY 3          ECOTYPE :AZWH18
 STARTING DATE  : SEP  1 2022
 PLANTING DATE  : NOV 23 2022      PLANTS/m2 :   137.0    ROW SPACING :  20.cm
 WEATHER        : CIOB   2022
 SOIL           : CCENEB2301     TEXTURE : C     -   CIMMYT CENEB 710
 SOIL INIT COND : DEPTH:120cm EXTR. H2O: 82.8mm  NO3:484.0kg/ha  NH4:341.8kg/ha
 WATER BALANCE  : IRRIGATE ON REPORTED DATE(S)
 IRRIGATION     :      525 mm IN     9 APPLICATIONS
 NITROGEN BAL.  : SOIL-N & N-UPTAKE SIMULATION; NO N-FIXATION
 N-FERTILIZER   :      323 kg/ha IN     3 APPLICATIONS
 RESIDUE/MANURE : INITIAL :     0 kg/ha ;    2222 kg/ha IN     1 APPLICATIONS
 ENVIRONM. OPT. : DAYL=    0.00  SRAD=    0.00  TMAX=    0.00  TMIN=    0.00
                  RAIN=    0.00  CO2 =    0.00  DEW =    0.00  WIND=    0.00
 SIMULATION OPT : WATER   :Y  NITROGEN:Y  N-FIX:N  PHOSPH :N  PESTS  :N
                  PHOTO   :C  ET      :R  INFIL:S  HYDROL :R  SOM    :G
                  CO2 418ppm  NSWIT   :1  EVAP :R  SOIL   :2  STEMP  :D
 MANAGEMENT OPT : PLANTING:R  IRRIG   :R  FERT :R  RESIDUE:R  HARVEST:M
                  WEATHER :M  TILLAGE :Y

*SUMMARY OF SOIL AND GENETIC INPUT PARAMETERS

   SOIL LOWER UPPER   SAT  EXTR  INIT   ROOT   BULK     pH    NO3    NH4    ORG
  DEPTH LIMIT LIMIT    SW    SW    SW   DIST   DENS                          C
   cm   cm3/cm3    cm3/cm3    cm3/cm3         g/cm3         ugN/g  ugN/g     %
-------------------------------------------------------------------------------
  0-  5 0.143 0.204 0.268 0.061 0.172   1.00   1.35   8.50  29.00  29.00   1.08
  5- 15 0.143 0.204 0.268 0.061 0.172   1.00   1.35   8.50  29.00  29.00   1.08
 15- 30 0.143 0.204 0.268 0.061 0.172   1.00   1.35   8.50  29.00  29.00   1.08
 30- 45 0.166 0.234 0.274 0.068 0.225   0.41   1.58   8.50  27.00  16.00   0.80
 45- 60 0.166 0.234 0.274 0.068 0.225   0.41   1.58   8.50  27.00  16.00   0.80
 60- 90 0.155 0.227 0.276 0.072 0.207   0.22   1.50   7.90  53.00  33.00   0.87
 90-120 0.188 0.263 0.308 0.075 0.263   0.12   1.38   8.00   0.01   0.01   0.40

TOT-120  19.6  27.8  33.8   8.3  26.0  <--cm   -  kg/ha-->  484.0  341.8 137370
SOIL ALBEDO    : 0.13      EVAPORATION LIMIT : 6.00         MIN. FACTOR  : 1.00
RUNOFF CURVE # :61.00      DRAINAGE RATE     : 0.60         FERT. FACTOR : 1.00

 Wheat            CULTIVAR: 518062-ENTRY 3            ECOTYPE: AZWH18
   P1V   P1D    P5    G1    G2    G3 PHINT
  11.4   6.8 512.1  15.4  50.6  6.59 136.4


*SIMULATED CROP AND SOIL STATUS AT MAIN DEVELOPMENT STAGES
  
 RUN NO.      3   ROOTS ANATOMY                                               

 ...... DATE ......  GROWTH STAGE BIOMASS   LEAF       CROP N      STRESS
 YEARDOY DOM MON DAP ............. kg/ha AREA NUMBER  kg/ha   %   H2O    N
 2022327  23 Nov   0 7 Sowing         0  0.00   0.0     0   0.0  0.00  0.00
 2022328  24 Nov   1 8 Germinate      0  0.00   0.0     0   0.0  0.00  0.00
 2022330  26 Nov   3 9 Emergence      0  0.00   0.0     0   0.0  0.00  0.00
 2023030  30 Jan  68 1 Term Spklt  2393  1.53   8.9    36   1.5  0.01  0.00
 2023052  21 Feb  90 2 End Veg     5865  5.39  11.5   109   1.9  0.00  0.00
 2023066   7 Mar 104 3 End Ear Gr  8806  4.68  11.5   105   1.2  0.07  0.00
 2023076  17 Mar 114 4 Beg Gr Fil 11519  4.10  11.5   104   0.9  0.00  0.00
 2023103  13 Apr 141 5 End Gr Fil 18631  1.38  11.5   206   1.1  0.15  0.00
 2023103  13 Apr 141 6 Harvest    18631  1.38  11.5   206   1.1  0.60  0.06
  

*MAIN GROWTH AND DEVELOPMENT VARIABLES

@     VARIABLE                             SIMULATED     MEASURED
      --------                             ---------     --------
      Emergence (DAP)                            3            7
      Anthesis (DAP)                           107           95
      Maturity (DAP)                           141          138
      Product wt (kg dm/ha;no loss)           7612         7260
      Product unit weight (g dm)             0.051        0.049
      Product number (no/m2)                 15043        14914
      Product number (no/group)               43.7        -99.0
      Product harvest index (ratio)           0.41         0.43
      Maximum leaf area index                  5.4          5.6
      Final leaf number (one axis)            11.5        -99.0
      Final shoot number (#/m2)                344          -99
      Canopy (tops) wt (kg dm/ha)            18631        16824
      Vegetative wt (kg dm/ha)               11019         9564
      Root wt (kg dm/ha)                      1210          -99
      Assimilate wt (kg dm/ha)               20789          -99
      Senesced wt (kg dm/ha)                   137          -99
      Reserves wt (kg dm/ha)                  5470          -99
      N uptake (kg/ha)                       224.9        -99.0
      N senesced (kg/ha)                       1.9        -99.0
      Above-ground N (kg/ha)                 206.1        -99.0
      Root N (kg/ha)                          17.8        -99.0
      Vegetative N (kg/ha)                    36.7        -99.0
      Product N (kg/ha)                      169.4        139.3
      Product N harvest index (ratio)         0.82       -99.00
      Product N (%)                            2.2          1.9
      Vegetative N (%)                         0.3        -99.0
      Leaf+stem wt,anthesis (kg dm/ha)        9640          -99
      Leaf+stem N,anthesis (kg/ha)           104.5        -99.0
      Leaf N,anthesis (%)                      3.0        -99.0

*ENVIRONMENTAL AND STRESS FACTORS

 |-----Development Phase------|-------------Environment--------------|----------------Stress-----------------|
                              |--------Average-------|---Cumulative--|         (0=Min, 1=Max Stress)         |
                         Time  Temp  Temp Solar Photop         Evapo |----Water---|--Nitrogen--|--Phosphorus-|
                         Span   Max   Min   Rad  [day]   Rain  Trans  Photo         Photo         Photo
                         days    °C    °C MJ/m2     hr     mm     mm  synth Growth ' synth Growth  synth Growth
--------------------------------------------------------------------------------------------------------------
 Germinate  - Term Spklt   65  26.2   7.0  14.4  11.37   10.0   92.6  0.011  0.042  0.000  0.000 -99.00 -99.00
 Term Spklt - End Veg      22  24.8   6.8  15.1  11.87   12.2   63.0  0.000  0.000  0.000  0.000 -99.00 -99.00
 End Veg    - End Ear Gr   14  24.8   6.0  18.5  12.29    0.1   46.9  0.073  0.124  0.000  0.000 -99.00 -99.00
 End Ear Gr - Beg Gr Fil   10  30.0  10.3  20.1  12.61   13.7   43.7  0.000  0.000  0.000  0.000 -99.00 -99.00
 Beg Gr Fil - End Gr Fil   27  29.2   8.4  24.0  13.12   52.1  111.4  0.153  0.191  0.002  0.002 -99.00 -99.00
  
 Germinate  - End Gr Fil  138  26.7   7.4  17.2  11.97   88.1  357.5  0.042  0.070  0.000  0.000 -99.00 -99.00
--------------------------------------------------------------------------------------------------------------


*RESOURCE PRODUCTIVITY

 Growing season length: 138 days 

 Precipitation during growth season         88.1 mm[rain]
   Dry Matter Productivity                 21.15 kg[DM]/m3[rain]          =  211.5 kg[DM]/ha per mm[rain]
   Yield Productivity                       8.64 kg[grain yield]/m3[rain] =   86.4 kg[yield]/ha per mm[rain]

 Evapotranspiration during growth season   357.5 mm[ET]
   Dry Matter Productivity                  5.21 kg[DM]/m3[ET]            =   52.1 kg[DM]/ha per mm[ET]
   Yield Productivity                       2.13 kg[grain yield]/m3[ET]   =   21.3 kg[yield]/ha per mm[ET]

 Transpiration during growth season        283.5 mm[EP]
   Dry Matter Productivity                  6.57 kg[DM]/m3[EP]            =   65.7 kg[DM]/ha per mm[EP]
   Yield Productivity                       2.69 kg[grain yield]/m3[EP]   =   26.9 kg[yield]/ha per mm[EP]

 Irrigation during growing season          525.1 mm[irrig]
   Dry Matter Productivity                  3.55 kg[DM]/m3[irrig]         =   35.5 kg[DM]/ha per mm[irrig]
   Yield Productivity                       1.45 kg[grain yield]/m3[irrig]=   14.5 kg[yield]/ha per mm[irrig]

 N applied during growing season           323.0 kg[N applied]/ha
   Dry Matter Productivity                  57.7 kg[DM]/kg[N applied]
   Yield Productivity                       23.6 kg[yield]/kg[N applied]

 N uptake during growing season            224.9 kg[N uptake]/ha
   Dry Matter Productivity                  82.8 kg[DM]/kg[N uptake]
   Yield Productivity                       33.8 kg[yield]/kg[N uptake]

--------------------------------------------------------------------------------------------------------------

          WHEAT YIELD :     7612 kg/ha    [Dry weight] 

**************************************************************************************************************
  

*DSSAT Cropping System Model Ver. 4.8.2.000 -release  JUL 07, 2025 11:09:34

*RUN   4        : WW23_G-4                  CSCER048 CIOB2301    4
 MODEL          : CSCER048 - Wheat
 EXPERIMENT     : CIOB2301 WH ROOTS ANATOMY
 DATA PATH      : C:\DSSAT48\Wheat\
 TREATMENT  4   : WW23_G-4                  CSCER048


 CROP           : Wheat            CULTIVAR : ENTRY 4          ECOTYPE :AZWH18
 STARTING DATE  : SEP  1 2022
 PLANTING DATE  : NOV 23 2022      PLANTS/m2 :   137.0    ROW SPACING :  20.cm
 WEATHER        : CIOB   2022
 SOIL           : CCENEB2301     TEXTURE : C     -   CIMMYT CENEB 710
 SOIL INIT COND : DEPTH:120cm EXTR. H2O: 82.8mm  NO3:484.0kg/ha  NH4:341.8kg/ha
 WATER BALANCE  : IRRIGATE ON REPORTED DATE(S)
 IRRIGATION     :      525 mm IN     9 APPLICATIONS
 NITROGEN BAL.  : SOIL-N & N-UPTAKE SIMULATION; NO N-FIXATION
 N-FERTILIZER   :      323 kg/ha IN     3 APPLICATIONS
 RESIDUE/MANURE : INITIAL :     0 kg/ha ;    2222 kg/ha IN     1 APPLICATIONS
 ENVIRONM. OPT. : DAYL=    0.00  SRAD=    0.00  TMAX=    0.00  TMIN=    0.00
                  RAIN=    0.00  CO2 =    0.00  DEW =    0.00  WIND=    0.00
 SIMULATION OPT : WATER   :Y  NITROGEN:Y  N-FIX:N  PHOSPH :N  PESTS  :N
                  PHOTO   :C  ET      :R  INFIL:S  HYDROL :R  SOM    :G
                  CO2 418ppm  NSWIT   :1  EVAP :R  SOIL   :2  STEMP  :D
 MANAGEMENT OPT : PLANTING:R  IRRIG   :R  FERT :R  RESIDUE:R  HARVEST:M
                  WEATHER :M  TILLAGE :Y

*SUMMARY OF SOIL AND GENETIC INPUT PARAMETERS

   SOIL LOWER UPPER   SAT  EXTR  INIT   ROOT   BULK     pH    NO3    NH4    ORG
  DEPTH LIMIT LIMIT    SW    SW    SW   DIST   DENS                          C
   cm   cm3/cm3    cm3/cm3    cm3/cm3         g/cm3         ugN/g  ugN/g     %
-------------------------------------------------------------------------------
  0-  5 0.143 0.204 0.268 0.061 0.172   1.00   1.35   8.50  29.00  29.00   1.08
  5- 15 0.143 0.204 0.268 0.061 0.172   1.00   1.35   8.50  29.00  29.00   1.08
 15- 30 0.143 0.204 0.268 0.061 0.172   1.00   1.35   8.50  29.00  29.00   1.08
 30- 45 0.166 0.234 0.274 0.068 0.225   0.41   1.58   8.50  27.00  16.00   0.80
 45- 60 0.166 0.234 0.274 0.068 0.225   0.41   1.58   8.50  27.00  16.00   0.80
 60- 90 0.155 0.227 0.276 0.072 0.207   0.22   1.50   7.90  53.00  33.00   0.87
 90-120 0.188 0.263 0.308 0.075 0.263   0.12   1.38   8.00   0.01   0.01   0.40

TOT-120  19.6  27.8  33.8   8.3  26.0  <--cm   -  kg/ha-->  484.0  341.8 137370
SOIL ALBEDO    : 0.13      EVAPORATION LIMIT : 6.00         MIN. FACTOR  : 1.00
RUNOFF CURVE # :61.00      DRAINAGE RATE     : 0.60         FERT. FACTOR : 1.00

 Wheat            CULTIVAR: 617502-ENTRY 4            ECOTYPE: AZWH18
   P1V   P1D    P5    G1    G2    G3 PHINT
  16.4  15.3 451.1  14.6  60.7  1.41 147.1


*SIMULATED CROP AND SOIL STATUS AT MAIN DEVELOPMENT STAGES
  
 RUN NO.      4   ROOTS ANATOMY                                               

 ...... DATE ......  GROWTH STAGE BIOMASS   LEAF       CROP N      STRESS
 YEARDOY DOM MON DAP ............. kg/ha AREA NUMBER  kg/ha   %   H2O    N
 2022327  23 Nov   0 7 Sowing         0  0.00   0.0     0   0.0  0.00  0.00
 2022328  24 Nov   1 8 Germinate      0  0.00   0.0     0   0.0  0.00  0.00
 2022330  26 Nov   3 9 Emergence      0  0.00   0.0     0   0.0  0.00  0.00
 2023035   4 Feb  73 1 Term Spklt  2524  1.49   8.9    35   1.4  0.01  0.00
 2023057  26 Feb  95 2 End Veg     6066  5.16  11.2   101   1.7  0.00  0.00
 2023070  11 Mar 108 3 End Ear Gr  8961  4.56  11.2    97   1.1  0.09  0.00
 2023080  21 Mar 118 4 Beg Gr Fil 11722  4.10  11.2    97   0.8  0.00  0.00
 2023104  14 Apr 142 5 End Gr Fil 17585  1.25  11.2   215   1.2  0.21  0.08
 2023104  14 Apr 142 6 Harvest    17585  1.25  11.2   215   1.2  0.68  0.84
  

*MAIN GROWTH AND DEVELOPMENT VARIABLES

@     VARIABLE                             SIMULATED     MEASURED
      --------                             ---------     --------
      Emergence (DAP)                            3            7
      Anthesis (DAP)                           110           97
      Maturity (DAP)                           142          141
      Product wt (kg dm/ha;no loss)           8575         7183
      Product unit weight (g dm)             0.061        0.049
      Product number (no/m2)                 14127        14585
      Product number (no/group)               19.0        -99.0
      Product harvest index (ratio)           0.49         0.46
      Maximum leaf area index                  5.2          5.5
      Final leaf number (one axis)            11.2        -99.0
      Final shoot number (#/m2)                743          -99
      Canopy (tops) wt (kg dm/ha)            17585        15767
      Vegetative wt (kg dm/ha)                9010         8584
      Root wt (kg dm/ha)                      1252          -99
      Assimilate wt (kg dm/ha)               19815          -99
      Senesced wt (kg dm/ha)                   139          -99
      Reserves wt (kg dm/ha)                  3856          -99
      N uptake (kg/ha)                       232.7        -99.0
      N senesced (kg/ha)                       1.9        -99.0
      Above-ground N (kg/ha)                 214.5        -99.0
      Root N (kg/ha)                          17.1        -99.0
      Vegetative N (kg/ha)                    29.1        -99.0
      Product N (kg/ha)                      185.4        153.2
      Product N harvest index (ratio)         0.86       -99.00
      Product N (%)                            2.2          2.1
      Vegetative N (%)                         0.3        -99.0
      Leaf+stem wt,anthesis (kg dm/ha)        9538          -99
      Leaf+stem N,anthesis (kg/ha)            96.8        -99.0
      Leaf N,anthesis (%)                      3.0        -99.0

*ENVIRONMENTAL AND STRESS FACTORS

 |-----Development Phase------|-------------Environment--------------|----------------Stress-----------------|
                              |--------Average-------|---Cumulative--|         (0=Min, 1=Max Stress)         |
                         Time  Temp  Temp Solar Photop         Evapo |----Water---|--Nitrogen--|--Phosphorus-|
                         Span   Max   Min   Rad  [day]   Rain  Trans  Photo         Photo         Photo
                         days    °C    °C MJ/m2     hr     mm     mm  synth Growth ' synth Growth  synth Growth
--------------------------------------------------------------------------------------------------------------
 Germinate  - Term Spklt   70  26.1   6.9  14.5  11.39   10.1   97.7  0.008  0.034  0.000  0.000 -99.00 -99.00
 Term Spklt - End Veg      22  24.3   7.3  15.4  11.98   12.1   67.4  0.000  0.000  0.000  0.000 -99.00 -99.00
 End Veg    - End Ear Gr   13  27.0   6.1  19.9  12.41    0.1   48.0  0.086  0.144  0.000  0.000 -99.00 -99.00
 End Ear Gr - Beg Gr Fil   10  28.7  11.7  20.5  12.72   65.8   44.3  0.000  0.000  0.000  0.000 -99.00 -99.00
 Beg Gr Fil - End Gr Fil   24  29.5   8.0  24.3  13.19    0.0   94.1  0.207  0.252  0.076  0.076 -99.00 -99.00
  
 Germinate  - End Gr Fil  139  26.7   7.4  17.3  11.99   88.1  351.5  0.048  0.074  0.013  0.013 -99.00 -99.00
--------------------------------------------------------------------------------------------------------------


*RESOURCE PRODUCTIVITY

 Growing season length: 139 days 

 Precipitation during growth season         88.1 mm[rain]
   Dry Matter Productivity                 19.96 kg[DM]/m3[rain]          =  199.6 kg[DM]/ha per mm[rain]
   Yield Productivity                       9.73 kg[grain yield]/m3[rain] =   97.3 kg[yield]/ha per mm[rain]

 Evapotranspiration during growth season   351.5 mm[ET]
   Dry Matter Productivity                  5.00 kg[DM]/m3[ET]            =   50.0 kg[DM]/ha per mm[ET]
   Yield Productivity                       2.44 kg[grain yield]/m3[ET]   =   24.4 kg[yield]/ha per mm[ET]

 Transpiration during growth season        272.7 mm[EP]
   Dry Matter Productivity                  6.45 kg[DM]/m3[EP]            =   64.5 kg[DM]/ha per mm[EP]
   Yield Productivity                       3.14 kg[grain yield]/m3[EP]   =   31.4 kg[yield]/ha per mm[EP]

 Irrigation during growing season          525.1 mm[irrig]
   Dry Matter Productivity                  3.35 kg[DM]/m3[irrig]         =   33.5 kg[DM]/ha per mm[irrig]
   Yield Productivity                       1.63 kg[grain yield]/m3[irrig]=   16.3 kg[yield]/ha per mm[irrig]

 N applied during growing season           323.0 kg[N applied]/ha
   Dry Matter Productivity                  54.4 kg[DM]/kg[N applied]
   Yield Productivity                       26.5 kg[yield]/kg[N applied]

 N uptake during growing season            232.7 kg[N uptake]/ha
   Dry Matter Productivity                  75.6 kg[DM]/kg[N uptake]
   Yield Productivity                       36.9 kg[yield]/kg[N uptake]

--------------------------------------------------------------------------------------------------------------

          WHEAT YIELD :     8575 kg/ha    [Dry weight] 

**************************************************************************************************************
  

*DSSAT Cropping System Model Ver. 4.8.2.000 -release  JUL 07, 2025 11:09:34

*RUN   5        : WW23_G-5                  CSCER048 CIOB2301    5
 MODEL          : CSCER048 - Wheat
 EXPERIMENT     : CIOB2301 WH ROOTS ANATOMY
 DATA PATH      : C:\DSSAT48\Wheat\
 TREATMENT  5   : WW23_G-5                  CSCER048


 CROP           : Wheat            CULTIVAR : ENTRY 5          ECOTYPE :AZWH18
 STARTING DATE  : SEP  1 2022
 PLANTING DATE  : NOV 23 2022      PLANTS/m2 :   137.0    ROW SPACING :  20.cm
 WEATHER        : CIOB   2022
 SOIL           : CCENEB2301     TEXTURE : C     -   CIMMYT CENEB 710
 SOIL INIT COND : DEPTH:120cm EXTR. H2O: 82.8mm  NO3:484.0kg/ha  NH4:341.8kg/ha
 WATER BALANCE  : IRRIGATE ON REPORTED DATE(S)
 IRRIGATION     :      525 mm IN     9 APPLICATIONS
 NITROGEN BAL.  : SOIL-N & N-UPTAKE SIMULATION; NO N-FIXATION
 N-FERTILIZER   :      323 kg/ha IN     3 APPLICATIONS
 RESIDUE/MANURE : INITIAL :     0 kg/ha ;    2222 kg/ha IN     1 APPLICATIONS
 ENVIRONM. OPT. : DAYL=    0.00  SRAD=    0.00  TMAX=    0.00  TMIN=    0.00
                  RAIN=    0.00  CO2 =    0.00  DEW =    0.00  WIND=    0.00
 SIMULATION OPT : WATER   :Y  NITROGEN:Y  N-FIX:N  PHOSPH :N  PESTS  :N
                  PHOTO   :C  ET      :R  INFIL:S  HYDROL :R  SOM    :G
                  CO2 418ppm  NSWIT   :1  EVAP :R  SOIL   :2  STEMP  :D
 MANAGEMENT OPT : PLANTING:R  IRRIG   :R  FERT :R  RESIDUE:R  HARVEST:M
                  WEATHER :M  TILLAGE :Y

*SUMMARY OF SOIL AND GENETIC INPUT PARAMETERS

   SOIL LOWER UPPER   SAT  EXTR  INIT   ROOT   BULK     pH    NO3    NH4    ORG
  DEPTH LIMIT LIMIT    SW    SW    SW   DIST   DENS                          C
   cm   cm3/cm3    cm3/cm3    cm3/cm3         g/cm3         ugN/g  ugN/g     %
-------------------------------------------------------------------------------
  0-  5 0.143 0.204 0.268 0.061 0.172   1.00   1.35   8.50  29.00  29.00   1.08
  5- 15 0.143 0.204 0.268 0.061 0.172   1.00   1.35   8.50  29.00  29.00   1.08
 15- 30 0.143 0.204 0.268 0.061 0.172   1.00   1.35   8.50  29.00  29.00   1.08
 30- 45 0.166 0.234 0.274 0.068 0.225   0.41   1.58   8.50  27.00  16.00   0.80
 45- 60 0.166 0.234 0.274 0.068 0.225   0.41   1.58   8.50  27.00  16.00   0.80
 60- 90 0.155 0.227 0.276 0.072 0.207   0.22   1.50   7.90  53.00  33.00   0.87
 90-120 0.188 0.263 0.308 0.075 0.263   0.12   1.38   8.00   0.01   0.01   0.40

TOT-120  19.6  27.8  33.8   8.3  26.0  <--cm   -  kg/ha-->  484.0  341.8 137370
SOIL ALBEDO    : 0.13      EVAPORATION LIMIT : 6.00         MIN. FACTOR  : 1.00
RUNOFF CURVE # :61.00      DRAINAGE RATE     : 0.60         FERT. FACTOR : 1.00

 Wheat            CULTIVAR: 617636-ENTRY 5            ECOTYPE: AZWH18
   P1V   P1D    P5    G1    G2    G3 PHINT
   0.0  57.9 452.9  23.3  59.0  7.78  88.5


*SIMULATED CROP AND SOIL STATUS AT MAIN DEVELOPMENT STAGES
  
 RUN NO.      5   ROOTS ANATOMY                                               

 ...... DATE ......  GROWTH STAGE BIOMASS   LEAF       CROP N      STRESS
 YEARDOY DOM MON DAP ............. kg/ha AREA NUMBER  kg/ha   %   H2O    N
 2022327  23 Nov   0 7 Sowing         0  0.00   0.0     0   0.0  0.00  0.00
 2022328  24 Nov   1 8 Germinate      0  0.00   0.0     0   0.0  0.00  0.00
 2022330  26 Nov   3 9 Emergence      0  0.00   0.0     0   0.0  0.00  0.00
 2023006   6 Jan  44 1 Term Spklt  1128  1.36   9.0    32   2.9  0.08  0.00
 2023027  27 Jan  65 2 End Veg     3919  5.63  12.7   116   3.0  0.15  0.00
 2023041  10 Feb  79 3 End Ear Gr  6743  4.82  12.7   112   1.7  0.02  0.00
 2023054  23 Feb  92 4 Beg Gr Fil  9307  4.21  12.7   111   1.2  0.00  0.00
 2023079  20 Mar 117 5 End Gr Fil 15111  1.22  12.7   259   1.7  0.06  0.00
 2023079  20 Mar 117 6 Harvest    15111  1.22  12.7   259   1.7  0.00  0.00
  

*MAIN GROWTH AND DEVELOPMENT VARIABLES

@     VARIABLE                             SIMULATED     MEASURED
      --------                             ---------     --------
      Emergence (DAP)                            3            7
      Anthesis (DAP)                            82          100
      Maturity (DAP)                           117          144
      Product wt (kg dm/ha;no loss)           9788         7020
      Product unit weight (g dm)             0.056        0.049
      Product number (no/m2)                 17367        14222
      Product number (no/group)               60.9        -99.0
      Product harvest index (ratio)           0.65         0.34
      Maximum leaf area index                  5.6          5.3
      Final leaf number (one axis)            12.7        -99.0
      Final shoot number (#/m2)                285          -99
      Canopy (tops) wt (kg dm/ha)            15111        20705
      Vegetative wt (kg dm/ha)                5323        13685
      Root wt (kg dm/ha)                       912          -99
      Assimilate wt (kg dm/ha)               16784          -99
      Senesced wt (kg dm/ha)                   166          -99
      Reserves wt (kg dm/ha)                    49          -99
      N uptake (kg/ha)                       276.2        -99.0
      N senesced (kg/ha)                       2.2        -99.0
      Above-ground N (kg/ha)                 259.5        -99.0
      Root N (kg/ha)                          15.3        -99.0
      Vegetative N (kg/ha)                    38.1        -99.0
      Product N (kg/ha)                      221.4        148.5
      Product N harvest index (ratio)         0.85       -99.00
      Product N (%)                            2.3          2.1
      Vegetative N (%)                         0.7        -99.0
      Leaf+stem wt,anthesis (kg dm/ha)        7183          -99
      Leaf+stem N,anthesis (kg/ha)           111.7        -99.0
      Leaf N,anthesis (%)                      3.0        -99.0

*ENVIRONMENTAL AND STRESS FACTORS

 |-----Development Phase------|-------------Environment--------------|----------------Stress-----------------|
                              |--------Average-------|---Cumulative--|         (0=Min, 1=Max Stress)         |
                         Time  Temp  Temp Solar Photop         Evapo |----Water---|--Nitrogen--|--Phosphorus-|
                         Span   Max   Min   Rad  [day]   Rain  Trans  Photo         Photo         Photo
                         days    °C    °C MJ/m2     hr     mm     mm  synth Growth ' synth Growth  synth Growth
--------------------------------------------------------------------------------------------------------------
 Germinate  - Term Spklt   41  26.7   7.9  13.8  11.31    6.8   52.3  0.084  0.166  0.000  0.000 -99.00 -99.00
 Term Spklt - End Veg      21  25.4   5.6  15.3  11.44    3.2   53.3  0.149  0.219  0.000  0.000 -99.00 -99.00
 End Veg    - End Ear Gr   14  26.4   5.6  16.5  11.72    0.1   45.2  0.015  0.045  0.000  0.000 -99.00 -99.00
 End Ear Gr - Beg Gr Fil   13  22.8   8.0  14.5  12.01   12.1   36.6  0.000  0.000  0.000  0.000 -99.00 -99.00
 Beg Gr Fil - End Gr Fil   25  27.3   8.1  19.5  12.49   65.9   95.8  0.063  0.094  0.000  0.000 -99.00 -99.00
  
 Germinate  - End Gr Fil  114  26.1   7.3  15.7  11.72   88.1  283.3  0.073  0.126  0.000  0.000 -99.00 -99.00
--------------------------------------------------------------------------------------------------------------


*RESOURCE PRODUCTIVITY

 Growing season length: 114 days 

 Precipitation during growth season         88.1 mm[rain]
   Dry Matter Productivity                 17.15 kg[DM]/m3[rain]          =  171.5 kg[DM]/ha per mm[rain]
   Yield Productivity                      11.11 kg[grain yield]/m3[rain] =  111.1 kg[yield]/ha per mm[rain]

 Evapotranspiration during growth season   283.3 mm[ET]
   Dry Matter Productivity                  5.33 kg[DM]/m3[ET]            =   53.3 kg[DM]/ha per mm[ET]
   Yield Productivity                       3.45 kg[grain yield]/m3[ET]   =   34.5 kg[yield]/ha per mm[ET]

 Transpiration during growth season        225.7 mm[EP]
   Dry Matter Productivity                  6.70 kg[DM]/m3[EP]            =   67.0 kg[DM]/ha per mm[EP]
   Yield Productivity                       4.34 kg[grain yield]/m3[EP]   =   43.4 kg[yield]/ha per mm[EP]

 Irrigation during growing season          478.4 mm[irrig]
   Dry Matter Productivity                  3.16 kg[DM]/m3[irrig]         =   31.6 kg[DM]/ha per mm[irrig]
   Yield Productivity                       2.05 kg[grain yield]/m3[irrig]=   20.5 kg[yield]/ha per mm[irrig]

 N applied during growing season           323.0 kg[N applied]/ha
   Dry Matter Productivity                  46.8 kg[DM]/kg[N applied]
   Yield Productivity                       30.3 kg[yield]/kg[N applied]

 N uptake during growing season            276.2 kg[N uptake]/ha
   Dry Matter Productivity                  54.7 kg[DM]/kg[N uptake]
   Yield Productivity                       35.4 kg[yield]/kg[N uptake]

--------------------------------------------------------------------------------------------------------------

          WHEAT YIELD :     9788 kg/ha    [Dry weight] 

**************************************************************************************************************
  

*DSSAT Cropping System Model Ver. 4.8.2.000 -release  JUL 07, 2025 11:09:34

*RUN   6        : WW23_G-6                  CSCER048 CIOB2301    6
 MODEL          : CSCER048 - Wheat
 EXPERIMENT     : CIOB2301 WH ROOTS ANATOMY
 DATA PATH      : C:\DSSAT48\Wheat\
 TREATMENT  6   : WW23_G-6                  CSCER048


 CROP           : Wheat            CULTIVAR : ENTRY 6          ECOTYPE :AZWH18
 STARTING DATE  : SEP  1 2022
 PLANTING DATE  : NOV 23 2022      PLANTS/m2 :   137.0    ROW SPACING :  20.cm
 WEATHER        : CIOB   2022
 SOIL           : CCENEB2301     TEXTURE : C     -   CIMMYT CENEB 710
 SOIL INIT COND : DEPTH:120cm EXTR. H2O: 82.8mm  NO3:484.0kg/ha  NH4:341.8kg/ha
 WATER BALANCE  : IRRIGATE ON REPORTED DATE(S)
 IRRIGATION     :      525 mm IN     9 APPLICATIONS
 NITROGEN BAL.  : SOIL-N & N-UPTAKE SIMULATION; NO N-FIXATION
 N-FERTILIZER   :      323 kg/ha IN     3 APPLICATIONS
 RESIDUE/MANURE : INITIAL :     0 kg/ha ;    2222 kg/ha IN     1 APPLICATIONS
 ENVIRONM. OPT. : DAYL=    0.00  SRAD=    0.00  TMAX=    0.00  TMIN=    0.00
                  RAIN=    0.00  CO2 =    0.00  DEW =    0.00  WIND=    0.00
 SIMULATION OPT : WATER   :Y  NITROGEN:Y  N-FIX:N  PHOSPH :N  PESTS  :N
                  PHOTO   :C  ET      :R  INFIL:S  HYDROL :R  SOM    :G
                  CO2 418ppm  NSWIT   :1  EVAP :R  SOIL   :2  STEMP  :D
 MANAGEMENT OPT : PLANTING:R  IRRIG   :R  FERT :R  RESIDUE:R  HARVEST:M
                  WEATHER :M  TILLAGE :Y

*SUMMARY OF SOIL AND GENETIC INPUT PARAMETERS

   SOIL LOWER UPPER   SAT  EXTR  INIT   ROOT   BULK     pH    NO3    NH4    ORG
  DEPTH LIMIT LIMIT    SW    SW    SW   DIST   DENS                          C
   cm   cm3/cm3    cm3/cm3    cm3/cm3         g/cm3         ugN/g  ugN/g     %
-------------------------------------------------------------------------------
  0-  5 0.143 0.204 0.268 0.061 0.172   1.00   1.35   8.50  29.00  29.00   1.08
  5- 15 0.143 0.204 0.268 0.061 0.172   1.00   1.35   8.50  29.00  29.00   1.08
 15- 30 0.143 0.204 0.268 0.061 0.172   1.00   1.35   8.50  29.00  29.00   1.08
 30- 45 0.166 0.234 0.274 0.068 0.225   0.41   1.58   8.50  27.00  16.00   0.80
 45- 60 0.166 0.234 0.274 0.068 0.225   0.41   1.58   8.50  27.00  16.00   0.80
 60- 90 0.155 0.227 0.276 0.072 0.207   0.22   1.50   7.90  53.00  33.00   0.87
 90-120 0.188 0.263 0.308 0.075 0.263   0.12   1.38   8.00   0.01   0.01   0.40

TOT-120  19.6  27.8  33.8   8.3  26.0  <--cm   -  kg/ha-->  484.0  341.8 137370
SOIL ALBEDO    : 0.13      EVAPORATION LIMIT : 6.00         MIN. FACTOR  : 1.00
RUNOFF CURVE # :61.00      DRAINAGE RATE     : 0.60         FERT. FACTOR : 1.00

 Wheat            CULTIVAR: 474812-ENTRY 6            ECOTYPE: AZWH18
   P1V   P1D    P5    G1    G2    G3 PHINT
   0.5  31.4 568.4  17.6  45.0  8.00 129.6


*SIMULATED CROP AND SOIL STATUS AT MAIN DEVELOPMENT STAGES
  
 RUN NO.      6   ROOTS ANATOMY                                               

 ...... DATE ......  GROWTH STAGE BIOMASS   LEAF       CROP N      STRESS
 YEARDOY DOM MON DAP ............. kg/ha AREA NUMBER  kg/ha   %   H2O    N
 2022327  23 Nov   0 7 Sowing         0  0.00   0.0     0   0.0  0.00  0.00
 2022328  24 Nov   1 8 Germinate      0  0.00   0.0     0   0.0  0.00  0.00
 2022330  26 Nov   3 9 Emergence      0  0.00   0.0     0   0.0  0.00  0.00
 2023026  26 Jan  64 1 Term Spklt  2206  1.50   8.9    36   1.6  0.01  0.00
 2023048  17 Feb  86 2 End Veg     5856  5.48  11.5   112   1.9  0.00  0.00
 2023062   3 Mar 100 3 End Ear Gr  8653  4.72  11.5   108   1.3  0.00  0.00
 2023073  14 Mar 111 4 Beg Gr Fil 11571  4.11  11.5   107   0.9  0.09  0.00
 2023103  13 Apr 141 5 End Gr Fil 19280  1.27  11.5   203   1.1  0.13  0.00
 2023103  13 Apr 141 6 Harvest    19280  1.27  11.5   203   1.1  0.58  0.00
  

*MAIN GROWTH AND DEVELOPMENT VARIABLES

@     VARIABLE                             SIMULATED     MEASURED
      --------                             ---------     --------
      Emergence (DAP)                            3            7
      Anthesis (DAP)                           103          100
      Maturity (DAP)                           141          143
      Product wt (kg dm/ha;no loss)           7354         6947
      Product unit weight (g dm)             0.045        0.042
      Product number (no/m2)                 16343        16489
      Product number (no/group)               52.7        -99.0
      Product harvest index (ratio)           0.38         0.39
      Maximum leaf area index                  5.5          5.7
      Final leaf number (one axis)            11.5        -99.0
      Final shoot number (#/m2)                310          -99
      Canopy (tops) wt (kg dm/ha)            19280        17928
      Vegetative wt (kg dm/ha)               11926        10981
      Root wt (kg dm/ha)                      1172          -99
      Assimilate wt (kg dm/ha)               21374          -99
      Senesced wt (kg dm/ha)                   136          -99
      Reserves wt (kg dm/ha)                  6636          -99
      N uptake (kg/ha)                       222.2        -99.0
      N senesced (kg/ha)                       1.8        -99.0
      Above-ground N (kg/ha)                 203.4        -99.0
      Root N (kg/ha)                          17.7        -99.0
      Vegetative N (kg/ha)                    36.9        -99.0
      Product N (kg/ha)                      166.5        133.9
      Product N harvest index (ratio)         0.82       -99.00
      Product N (%)                            2.3          1.9
      Vegetative N (%)                         0.3        -99.0
      Leaf+stem wt,anthesis (kg dm/ha)        9312          -99
      Leaf+stem N,anthesis (kg/ha)           107.7        -99.0
      Leaf N,anthesis (%)                      3.0        -99.0

*ENVIRONMENTAL AND STRESS FACTORS

 |-----Development Phase------|-------------Environment--------------|----------------Stress-----------------|
                              |--------Average-------|---Cumulative--|         (0=Min, 1=Max Stress)         |
                         Time  Temp  Temp Solar Photop         Evapo |----Water---|--Nitrogen--|--Phosphorus-|
                         Span   Max   Min   Rad  [day]   Rain  Trans  Photo         Photo         Photo
                         days    °C    °C MJ/m2     hr     mm     mm  synth Growth ' synth Growth  synth Growth
--------------------------------------------------------------------------------------------------------------
 Germinate  - Term Spklt   61  26.3   7.2  14.3  11.35   10.0   88.2  0.013  0.050  0.000  0.000 -99.00 -99.00
 Term Spklt - End Veg      22  24.9   5.5  15.7  11.79    3.6   63.2  0.000  0.003  0.000  0.000 -99.00 -99.00
 End Veg    - End Ear Gr   14  23.5   8.3  16.0  12.19    8.7   44.0  0.000  0.001  0.000  0.000 -99.00 -99.00
 End Ear Gr - Beg Gr Fil   11  30.0   7.4  21.6  12.51    0.0   46.3  0.092  0.154  0.000  0.000 -99.00 -99.00
 Beg Gr Fil - End Gr Fil   30  29.0   8.8  23.2  13.08   65.8  121.0  0.132  0.166  0.000  0.000 -99.00 -99.00
  
 Germinate  - End Gr Fil  138  26.7   7.4  17.2  11.97   88.1  362.7  0.042  0.071  0.000  0.000 -99.00 -99.00
--------------------------------------------------------------------------------------------------------------


*RESOURCE PRODUCTIVITY

 Growing season length: 138 days 

 Precipitation during growth season         88.1 mm[rain]
   Dry Matter Productivity                 21.88 kg[DM]/m3[rain]          =  218.8 kg[DM]/ha per mm[rain]
   Yield Productivity                       8.35 kg[grain yield]/m3[rain] =   83.5 kg[yield]/ha per mm[rain]

 Evapotranspiration during growth season   362.7 mm[ET]
   Dry Matter Productivity                  5.32 kg[DM]/m3[ET]            =   53.2 kg[DM]/ha per mm[ET]
   Yield Productivity                       2.03 kg[grain yield]/m3[ET]   =   20.3 kg[yield]/ha per mm[ET]

 Transpiration during growth season        291.0 mm[EP]
   Dry Matter Productivity                  6.63 kg[DM]/m3[EP]            =   66.3 kg[DM]/ha per mm[EP]
   Yield Productivity                       2.53 kg[grain yield]/m3[EP]   =   25.3 kg[yield]/ha per mm[EP]

 Irrigation during growing season          525.1 mm[irrig]
   Dry Matter Productivity                  3.67 kg[DM]/m3[irrig]         =   36.7 kg[DM]/ha per mm[irrig]
   Yield Productivity                       1.40 kg[grain yield]/m3[irrig]=   14.0 kg[yield]/ha per mm[irrig]

 N applied during growing season           323.0 kg[N applied]/ha
   Dry Matter Productivity                  59.7 kg[DM]/kg[N applied]
   Yield Productivity                       22.8 kg[yield]/kg[N applied]

 N uptake during growing season            222.2 kg[N uptake]/ha
   Dry Matter Productivity                  86.8 kg[DM]/kg[N uptake]
   Yield Productivity                       33.1 kg[yield]/kg[N uptake]

--------------------------------------------------------------------------------------------------------------

          WHEAT YIELD :     7354 kg/ha    [Dry weight] 

**************************************************************************************************************
  

*DSSAT Cropping System Model Ver. 4.8.2.000 -release  JUL 07, 2025 11:09:34

*RUN   7        : WW23_G-7                  CSCER048 CIOB2301    7
 MODEL          : CSCER048 - Wheat
 EXPERIMENT     : CIOB2301 WH ROOTS ANATOMY
 DATA PATH      : C:\DSSAT48\Wheat\
 TREATMENT  7   : WW23_G-7                  CSCER048


 CROP           : Wheat            CULTIVAR : ENTRY 7          ECOTYPE :AZWH18
 STARTING DATE  : SEP  1 2022
 PLANTING DATE  : NOV 23 2022      PLANTS/m2 :   137.0    ROW SPACING :  20.cm
 WEATHER        : CIOB   2022
 SOIL           : CCENEB2301     TEXTURE : C     -   CIMMYT CENEB 710
 SOIL INIT COND : DEPTH:120cm EXTR. H2O: 82.8mm  NO3:484.0kg/ha  NH4:341.8kg/ha
 WATER BALANCE  : IRRIGATE ON REPORTED DATE(S)
 IRRIGATION     :      525 mm IN     9 APPLICATIONS
 NITROGEN BAL.  : SOIL-N & N-UPTAKE SIMULATION; NO N-FIXATION
 N-FERTILIZER   :      323 kg/ha IN     3 APPLICATIONS
 RESIDUE/MANURE : INITIAL :     0 kg/ha ;    2222 kg/ha IN     1 APPLICATIONS
 ENVIRONM. OPT. : DAYL=    0.00  SRAD=    0.00  TMAX=    0.00  TMIN=    0.00
                  RAIN=    0.00  CO2 =    0.00  DEW =    0.00  WIND=    0.00
 SIMULATION OPT : WATER   :Y  NITROGEN:Y  N-FIX:N  PHOSPH :N  PESTS  :N
                  PHOTO   :C  ET      :R  INFIL:S  HYDROL :R  SOM    :G
                  CO2 418ppm  NSWIT   :1  EVAP :R  SOIL   :2  STEMP  :D
 MANAGEMENT OPT : PLANTING:R  IRRIG   :R  FERT :R  RESIDUE:R  HARVEST:M
                  WEATHER :M  TILLAGE :Y

*SUMMARY OF SOIL AND GENETIC INPUT PARAMETERS

   SOIL LOWER UPPER   SAT  EXTR  INIT   ROOT   BULK     pH    NO3    NH4    ORG
  DEPTH LIMIT LIMIT    SW    SW    SW   DIST   DENS                          C
   cm   cm3/cm3    cm3/cm3    cm3/cm3         g/cm3         ugN/g  ugN/g     %
-------------------------------------------------------------------------------
  0-  5 0.143 0.204 0.268 0.061 0.172   1.00   1.35   8.50  29.00  29.00   1.08
  5- 15 0.143 0.204 0.268 0.061 0.172   1.00   1.35   8.50  29.00  29.00   1.08
 15- 30 0.143 0.204 0.268 0.061 0.172   1.00   1.35   8.50  29.00  29.00   1.08
 30- 45 0.166 0.234 0.274 0.068 0.225   0.41   1.58   8.50  27.00  16.00   0.80
 45- 60 0.166 0.234 0.274 0.068 0.225   0.41   1.58   8.50  27.00  16.00   0.80
 60- 90 0.155 0.227 0.276 0.072 0.207   0.22   1.50   7.90  53.00  33.00   0.87
 90-120 0.188 0.263 0.308 0.075 0.263   0.12   1.38   8.00   0.01   0.01   0.40

TOT-120  19.6  27.8  33.8   8.3  26.0  <--cm   -  kg/ha-->  484.0  341.8 137370
SOIL ALBEDO    : 0.13      EVAPORATION LIMIT : 6.00         MIN. FACTOR  : 1.00
RUNOFF CURVE # :61.00      DRAINAGE RATE     : 0.60         FERT. FACTOR : 1.00

 Wheat            CULTIVAR: 748117-ENTRY 7            ECOTYPE: AZWH18
   P1V   P1D    P5    G1    G2    G3 PHINT
  18.0  11.9 601.7  15.7  46.7  8.00 130.0


*SIMULATED CROP AND SOIL STATUS AT MAIN DEVELOPMENT STAGES
  
 RUN NO.      7   ROOTS ANATOMY                                               

 ...... DATE ......  GROWTH STAGE BIOMASS   LEAF       CROP N      STRESS
 YEARDOY DOM MON DAP ............. kg/ha AREA NUMBER  kg/ha   %   H2O    N
 2022327  23 Nov   0 7 Sowing         0  0.00   0.0     0   0.0  0.00  0.00
 2022328  24 Nov   1 8 Germinate      0  0.00   0.0     0   0.0  0.00  0.00
 2022330  26 Nov   3 9 Emergence      0  0.00   0.0     0   0.0  0.00  0.00
 2023034   3 Feb  72 1 Term Spklt  2977  2.03   9.8    49   1.7  0.01  0.00
 2023055  24 Feb  93 2 End Veg     6547  6.95  12.3   144   2.2  0.00  0.00
 2023069  10 Mar 107 3 End Ear Gr  9670  5.93  12.3   140   1.4  0.07  0.00
 2023079  20 Mar 117 4 Beg Gr Fil 12473  5.16  12.3   139   1.1  0.00  0.00
 2023110  20 Apr 148 5 End Gr Fil 19206  1.27  12.3   205   1.1  0.33  0.03
 2023110  20 Apr 148 6 Harvest    19206  1.27  12.3   205   1.1  0.80  0.51
  

*MAIN GROWTH AND DEVELOPMENT VARIABLES

@     VARIABLE                             SIMULATED     MEASURED
      --------                             ---------     --------
      Emergence (DAP)                            3            7
      Anthesis (DAP)                           109          101
      Maturity (DAP)                           148          142
      Product wt (kg dm/ha;no loss)           7573         6650
      Product unit weight (g dm)             0.047        0.041
      Product number (no/m2)                 16215        16031
      Product number (no/group)               47.3        -99.0
      Product harvest index (ratio)           0.39         0.41
      Maximum leaf area index                  6.9          6.7
      Final leaf number (one axis)            12.3        -99.0
      Final shoot number (#/m2)                343          -99
      Canopy (tops) wt (kg dm/ha)            19206        16066
      Vegetative wt (kg dm/ha)               11633         9416
      Root wt (kg dm/ha)                      1310          -99
      Assimilate wt (kg dm/ha)               21582          -99
      Senesced wt (kg dm/ha)                   180          -99
      Reserves wt (kg dm/ha)                  5612          -99
      N uptake (kg/ha)                       224.7        -99.0
      N senesced (kg/ha)                       2.4        -99.0
      Above-ground N (kg/ha)                 205.1        -99.0
      Root N (kg/ha)                          18.0        -99.0
      Vegetative N (kg/ha)                    37.5        -99.0
      Product N (kg/ha)                      167.5        123.9
      Product N harvest index (ratio)         0.82       -99.00
      Product N (%)                            2.2          1.9
      Vegetative N (%)                         0.3        -99.0
      Leaf+stem wt,anthesis (kg dm/ha)       10251          -99
      Leaf+stem N,anthesis (kg/ha)           139.4        -99.0
      Leaf N,anthesis (%)                      3.0        -99.0

*ENVIRONMENTAL AND STRESS FACTORS

 |-----Development Phase------|-------------Environment--------------|----------------Stress-----------------|
                              |--------Average-------|---Cumulative--|         (0=Min, 1=Max Stress)         |
                         Time  Temp  Temp Solar Photop         Evapo |----Water---|--Nitrogen--|--Phosphorus-|
                         Span   Max   Min   Rad  [day]   Rain  Trans  Photo         Photo         Photo
                         days    °C    °C MJ/m2     hr     mm     mm  synth Growth ' synth Growth  synth Growth
--------------------------------------------------------------------------------------------------------------
 Germinate  - Term Spklt   69  26.1   6.9  14.4  11.38   10.1  102.2  0.012  0.043  0.000  0.000 -99.00 -99.00
 Term Spklt - End Veg      21  24.5   7.1  15.4  11.95   12.1   64.3  0.000  0.000  0.000  0.000 -99.00 -99.00
 End Veg    - End Ear Gr   14  26.3   6.3  19.3  12.37    0.1   50.4  0.067  0.116  0.000  0.000 -99.00 -99.00
 End Ear Gr - Beg Gr Fil   10  29.1  11.1  20.5  12.69   65.8   44.1  0.000  0.000  0.000  0.000 -99.00 -99.00
 Beg Gr Fil - End Gr Fil   31  29.8   8.6  24.5  13.26    0.0  104.9  0.330  0.373  0.028  0.028 -99.00 -99.00
  
 Germinate  - End Gr Fil  145  26.9   7.5  17.6  12.05   88.1  365.8  0.083  0.112  0.006  0.006 -99.00 -99.00
--------------------------------------------------------------------------------------------------------------


*RESOURCE PRODUCTIVITY

 Growing season length: 145 days 

 Precipitation during growth season         88.1 mm[rain]
   Dry Matter Productivity                 21.80 kg[DM]/m3[rain]          =  218.0 kg[DM]/ha per mm[rain]
   Yield Productivity                       8.60 kg[grain yield]/m3[rain] =   86.0 kg[yield]/ha per mm[rain]

 Evapotranspiration during growth season   365.8 mm[ET]
   Dry Matter Productivity                  5.25 kg[DM]/m3[ET]            =   52.5 kg[DM]/ha per mm[ET]
   Yield Productivity                       2.07 kg[grain yield]/m3[ET]   =   20.7 kg[yield]/ha per mm[ET]

 Transpiration during growth season        297.8 mm[EP]
   Dry Matter Productivity                  6.45 kg[DM]/m3[EP]            =   64.5 kg[DM]/ha per mm[EP]
   Yield Productivity                       2.54 kg[grain yield]/m3[EP]   =   25.4 kg[yield]/ha per mm[EP]

 Irrigation during growing season          525.1 mm[irrig]
   Dry Matter Productivity                  3.66 kg[DM]/m3[irrig]         =   36.6 kg[DM]/ha per mm[irrig]
   Yield Productivity                       1.44 kg[grain yield]/m3[irrig]=   14.4 kg[yield]/ha per mm[irrig]

 N applied during growing season           323.0 kg[N applied]/ha
   Dry Matter Productivity                  59.5 kg[DM]/kg[N applied]
   Yield Productivity                       23.4 kg[yield]/kg[N applied]

 N uptake during growing season            224.7 kg[N uptake]/ha
   Dry Matter Productivity                  85.5 kg[DM]/kg[N uptake]
   Yield Productivity                       33.7 kg[yield]/kg[N uptake]

--------------------------------------------------------------------------------------------------------------

          WHEAT YIELD :     7573 kg/ha    [Dry weight] 

**************************************************************************************************************
  

*DSSAT Cropping System Model Ver. 4.8.2.000 -release  JUL 07, 2025 11:09:34

*RUN   8        : WW23_G-8                  CSCER048 CIOB2301    8
 MODEL          : CSCER048 - Wheat
 EXPERIMENT     : CIOB2301 WH ROOTS ANATOMY
 DATA PATH      : C:\DSSAT48\Wheat\
 TREATMENT  8   : WW23_G-8                  CSCER048


 CROP           : Wheat            CULTIVAR : ENTRY 8          ECOTYPE :AZWH18
 STARTING DATE  : SEP  1 2022
 PLANTING DATE  : NOV 23 2022      PLANTS/m2 :   137.0    ROW SPACING :  20.cm
 WEATHER        : CIOB   2022
 SOIL           : CCENEB2301     TEXTURE : C     -   CIMMYT CENEB 710
 SOIL INIT COND : DEPTH:120cm EXTR. H2O: 82.8mm  NO3:484.0kg/ha  NH4:341.8kg/ha
 WATER BALANCE  : IRRIGATE ON REPORTED DATE(S)
 IRRIGATION     :      525 mm IN     9 APPLICATIONS
 NITROGEN BAL.  : SOIL-N & N-UPTAKE SIMULATION; NO N-FIXATION
 N-FERTILIZER   :      323 kg/ha IN     3 APPLICATIONS
 RESIDUE/MANURE : INITIAL :     0 kg/ha ;    2222 kg/ha IN     1 APPLICATIONS
 ENVIRONM. OPT. : DAYL=    0.00  SRAD=    0.00  TMAX=    0.00  TMIN=    0.00
                  RAIN=    0.00  CO2 =    0.00  DEW =    0.00  WIND=    0.00
 SIMULATION OPT : WATER   :Y  NITROGEN:Y  N-FIX:N  PHOSPH :N  PESTS  :N
                  PHOTO   :C  ET      :R  INFIL:S  HYDROL :R  SOM    :G
                  CO2 418ppm  NSWIT   :1  EVAP :R  SOIL   :2  STEMP  :D
 MANAGEMENT OPT : PLANTING:R  IRRIG   :R  FERT :R  RESIDUE:R  HARVEST:M
                  WEATHER :M  TILLAGE :Y

*SUMMARY OF SOIL AND GENETIC INPUT PARAMETERS

   SOIL LOWER UPPER   SAT  EXTR  INIT   ROOT   BULK     pH    NO3    NH4    ORG
  DEPTH LIMIT LIMIT    SW    SW    SW   DIST   DENS                          C
   cm   cm3/cm3    cm3/cm3    cm3/cm3         g/cm3         ugN/g  ugN/g     %
-------------------------------------------------------------------------------
  0-  5 0.143 0.204 0.268 0.061 0.172   1.00   1.35   8.50  29.00  29.00   1.08
  5- 15 0.143 0.204 0.268 0.061 0.172   1.00   1.35   8.50  29.00  29.00   1.08
 15- 30 0.143 0.204 0.268 0.061 0.172   1.00   1.35   8.50  29.00  29.00   1.08
 30- 45 0.166 0.234 0.274 0.068 0.225   0.41   1.58   8.50  27.00  16.00   0.80
 45- 60 0.166 0.234 0.274 0.068 0.225   0.41   1.58   8.50  27.00  16.00   0.80
 60- 90 0.155 0.227 0.276 0.072 0.207   0.22   1.50   7.90  53.00  33.00   0.87
 90-120 0.188 0.263 0.308 0.075 0.263   0.12   1.38   8.00   0.01   0.01   0.40

TOT-120  19.6  27.8  33.8   8.3  26.0  <--cm   -  kg/ha-->  484.0  341.8 137370
SOIL ALBEDO    : 0.13      EVAPORATION LIMIT : 6.00         MIN. FACTOR  : 1.00
RUNOFF CURVE # :61.00      DRAINAGE RATE     : 0.60         FERT. FACTOR : 1.00

 Wheat            CULTIVAR: 748118-ENTRY 8            ECOTYPE: AZWH18
   P1V   P1D    P5    G1    G2    G3 PHINT
  10.8   0.0 447.8  11.5  54.3  7.42  97.3


*SIMULATED CROP AND SOIL STATUS AT MAIN DEVELOPMENT STAGES
  
 RUN NO.      8   ROOTS ANATOMY                                               

 ...... DATE ......  GROWTH STAGE BIOMASS   LEAF       CROP N      STRESS
 YEARDOY DOM MON DAP ............. kg/ha AREA NUMBER  kg/ha   %   H2O    N
 2022327  23 Nov   0 7 Sowing         0  0.00   0.0     0   0.0  0.00  0.00
 2022328  24 Nov   1 8 Germinate      0  0.00   0.0     0   0.0  0.00  0.00
 2022330  26 Nov   3 9 Emergence      0  0.00   0.0     0   0.0  0.00  0.00
 2023027  27 Jan  65 1 Term Spklt  3301  3.87  11.6    98   3.0  0.05  0.00
 2023049  18 Feb  87 2 End Veg     7206 11.00  15.1   239   3.3  0.01  0.00
 2023063   4 Mar 101 3 End Ear Gr 10162  9.39  15.1   235   2.3  0.00  0.00
 2023074  15 Mar 112 4 Beg Gr Fil 13221  8.06  15.1   234   1.8  0.06  0.00
 2023098   8 Apr 136 5 End Gr Fil 20457  2.92  15.1   233   1.1  0.05  0.00
 2023098   8 Apr 136 6 Harvest    20457  2.92  15.1   233   1.1  0.54  0.00
  

*MAIN GROWTH AND DEVELOPMENT VARIABLES

@     VARIABLE                             SIMULATED     MEASURED
      --------                             ---------     --------
      Emergence (DAP)                            3            7
      Anthesis (DAP)                           104          104
      Maturity (DAP)                           136          146
      Product wt (kg dm/ha;no loss)           6664         6393
      Product unit weight (g dm)             0.054        0.041
      Product number (no/m2)                 12272        15446
      Product number (no/group)               31.0        -99.0
      Product harvest index (ratio)           0.33         0.31
      Maximum leaf area index                 11.0          5.7
      Final leaf number (one axis)            15.1        -99.0
      Final shoot number (#/m2)                396          -99
      Canopy (tops) wt (kg dm/ha)            20457        20909
      Vegetative wt (kg dm/ha)               13793        14516
      Root wt (kg dm/ha)                      1422          -99
      Assimilate wt (kg dm/ha)               23136          -99
      Senesced wt (kg dm/ha)                   297          -99
      Reserves wt (kg dm/ha)                  6052          -99
      N uptake (kg/ha)                       260.6        -99.0
      N senesced (kg/ha)                       4.1        -99.0
      Above-ground N (kg/ha)                 233.4        -99.0
      Root N (kg/ha)                          23.9        -99.0
      Vegetative N (kg/ha)                    82.6        -99.0
      Product N (kg/ha)                      150.8        141.9
      Product N harvest index (ratio)         0.65       -99.00
      Product N (%)                            2.3          2.2
      Vegetative N (%)                         0.6        -99.0
      Leaf+stem wt,anthesis (kg dm/ha)       10778          -99
      Leaf+stem N,anthesis (kg/ha)           234.3        -99.0
      Leaf N,anthesis (%)                      3.0        -99.0

*ENVIRONMENTAL AND STRESS FACTORS

 |-----Development Phase------|-------------Environment--------------|----------------Stress-----------------|
                              |--------Average-------|---Cumulative--|         (0=Min, 1=Max Stress)         |
                         Time  Temp  Temp Solar Photop         Evapo |----Water---|--Nitrogen--|--Phosphorus-|
                         Span   Max   Min   Rad  [day]   Rain  Trans  Photo         Photo         Photo
                         days    °C    °C MJ/m2     hr     mm     mm  synth Growth ' synth Growth  synth Growth
--------------------------------------------------------------------------------------------------------------
 Germinate  - Term Spklt   62  26.2   7.1  14.3  11.35   10.0  100.9  0.050  0.106  0.000  0.000 -99.00 -99.00
 Term Spklt - End Veg      22  25.0   5.9  15.6  11.81   11.8   66.9  0.005  0.022  0.004  0.004 -99.00 -99.00
 End Veg    - End Ear Gr   14  23.7   7.7  16.7  12.22    0.5   45.7  0.000  0.006  0.000  0.000 -99.00 -99.00
 End Ear Gr - Beg Gr Fil   11  30.3   8.0  21.4  12.54    0.0   47.4  0.060  0.109  0.000  0.000 -99.00 -99.00
 Beg Gr Fil - End Gr Fil   24  28.4   8.8  22.9  13.02   65.8  109.2  0.049  0.072  0.000  0.000 -99.00 -99.00
  
 Germinate  - End Gr Fil  133  26.5   7.3  16.9  11.92   88.1  370.2  0.038  0.076  0.001  0.001 -99.00 -99.00
--------------------------------------------------------------------------------------------------------------


*RESOURCE PRODUCTIVITY

 Growing season length: 133 days 

 Precipitation during growth season         88.1 mm[rain]
   Dry Matter Productivity                 23.22 kg[DM]/m3[rain]          =  232.2 kg[DM]/ha per mm[rain]
   Yield Productivity                       7.56 kg[grain yield]/m3[rain] =   75.6 kg[yield]/ha per mm[rain]

 Evapotranspiration during growth season   370.2 mm[ET]
   Dry Matter Productivity                  5.53 kg[DM]/m3[ET]            =   55.3 kg[DM]/ha per mm[ET]
   Yield Productivity                       1.80 kg[grain yield]/m3[ET]   =   18.0 kg[yield]/ha per mm[ET]

 Transpiration during growth season        320.4 mm[EP]
   Dry Matter Productivity                  6.39 kg[DM]/m3[EP]            =   63.9 kg[DM]/ha per mm[EP]
   Yield Productivity                       2.08 kg[grain yield]/m3[EP]   =   20.8 kg[yield]/ha per mm[EP]

 Irrigation during growing season          525.1 mm[irrig]
   Dry Matter Productivity                  3.90 kg[DM]/m3[irrig]         =   39.0 kg[DM]/ha per mm[irrig]
   Yield Productivity                       1.27 kg[grain yield]/m3[irrig]=   12.7 kg[yield]/ha per mm[irrig]

 N applied during growing season           323.0 kg[N applied]/ha
   Dry Matter Productivity                  63.3 kg[DM]/kg[N applied]
   Yield Productivity                       20.6 kg[yield]/kg[N applied]

 N uptake during growing season            260.6 kg[N uptake]/ha
   Dry Matter Productivity                  78.5 kg[DM]/kg[N uptake]
   Yield Productivity                       25.6 kg[yield]/kg[N uptake]

--------------------------------------------------------------------------------------------------------------

          WHEAT YIELD :     6664 kg/ha    [Dry weight] 

**************************************************************************************************************
  

*DSSAT Cropping System Model Ver. 4.8.2.000 -release  JUL 07, 2025 11:09:35

*RUN   9        : WW23_G-9                  CSCER048 CIOB2301    9
 MODEL          : CSCER048 - Wheat
 EXPERIMENT     : CIOB2301 WH ROOTS ANATOMY
 DATA PATH      : C:\DSSAT48\Wheat\
 TREATMENT  9   : WW23_G-9                  CSCER048


 CROP           : Wheat            CULTIVAR : ENTRY 9          ECOTYPE :AZWH18
 STARTING DATE  : SEP  1 2022
 PLANTING DATE  : NOV 23 2022      PLANTS/m2 :   137.0    ROW SPACING :  20.cm
 WEATHER        : CIOB   2022
 SOIL           : CCENEB2301     TEXTURE : C     -   CIMMYT CENEB 710
 SOIL INIT COND : DEPTH:120cm EXTR. H2O: 82.8mm  NO3:484.0kg/ha  NH4:341.8kg/ha
 WATER BALANCE  : IRRIGATE ON REPORTED DATE(S)
 IRRIGATION     :      525 mm IN     9 APPLICATIONS
 NITROGEN BAL.  : SOIL-N & N-UPTAKE SIMULATION; NO N-FIXATION
 N-FERTILIZER   :      323 kg/ha IN     3 APPLICATIONS
 RESIDUE/MANURE : INITIAL :     0 kg/ha ;    2222 kg/ha IN     1 APPLICATIONS
 ENVIRONM. OPT. : DAYL=    0.00  SRAD=    0.00  TMAX=    0.00  TMIN=    0.00
                  RAIN=    0.00  CO2 =    0.00  DEW =    0.00  WIND=    0.00
 SIMULATION OPT : WATER   :Y  NITROGEN:Y  N-FIX:N  PHOSPH :N  PESTS  :N
                  PHOTO   :C  ET      :R  INFIL:S  HYDROL :R  SOM    :G
                  CO2 418ppm  NSWIT   :1  EVAP :R  SOIL   :2  STEMP  :D
 MANAGEMENT OPT : PLANTING:R  IRRIG   :R  FERT :R  RESIDUE:R  HARVEST:M
                  WEATHER :M  TILLAGE :Y

*SUMMARY OF SOIL AND GENETIC INPUT PARAMETERS

   SOIL LOWER UPPER   SAT  EXTR  INIT   ROOT   BULK     pH    NO3    NH4    ORG
  DEPTH LIMIT LIMIT    SW    SW    SW   DIST   DENS                          C
   cm   cm3/cm3    cm3/cm3    cm3/cm3         g/cm3         ugN/g  ugN/g     %
-------------------------------------------------------------------------------
  0-  5 0.143 0.204 0.268 0.061 0.172   1.00   1.35   8.50  29.00  29.00   1.08
  5- 15 0.143 0.204 0.268 0.061 0.172   1.00   1.35   8.50  29.00  29.00   1.08
 15- 30 0.143 0.204 0.268 0.061 0.172   1.00   1.35   8.50  29.00  29.00   1.08
 30- 45 0.166 0.234 0.274 0.068 0.225   0.41   1.58   8.50  27.00  16.00   0.80
 45- 60 0.166 0.234 0.274 0.068 0.225   0.41   1.58   8.50  27.00  16.00   0.80
 60- 90 0.155 0.227 0.276 0.072 0.207   0.22   1.50   7.90  53.00  33.00   0.87
 90-120 0.188 0.263 0.308 0.075 0.263   0.12   1.38   8.00   0.01   0.01   0.40

TOT-120  19.6  27.8  33.8   8.3  26.0  <--cm   -  kg/ha-->  484.0  341.8 137370
SOIL ALBEDO    : 0.13      EVAPORATION LIMIT : 6.00         MIN. FACTOR  : 1.00
RUNOFF CURVE # :61.00      DRAINAGE RATE     : 0.60         FERT. FACTOR : 1.00

 Wheat            CULTIVAR: 474804-ENTRY 9            ECOTYPE: AZWH18
   P1V   P1D    P5    G1    G2    G3 PHINT
  16.5   7.1 612.2  15.6  40.3  3.74 134.1


*SIMULATED CROP AND SOIL STATUS AT MAIN DEVELOPMENT STAGES
  
 RUN NO.      9   ROOTS ANATOMY                                               

 ...... DATE ......  GROWTH STAGE BIOMASS   LEAF       CROP N      STRESS
 YEARDOY DOM MON DAP ............. kg/ha AREA NUMBER  kg/ha   %   H2O    N
 2022327  23 Nov   0 7 Sowing         0  0.00   0.0     0   0.0  0.00  0.00
 2022328  24 Nov   1 8 Germinate      0  0.00   0.0     0   0.0  0.00  0.00
 2022330  26 Nov   3 9 Emergence      0  0.00   0.0     0   0.0  0.00  0.00
 2023031  31 Jan  69 1 Term Spklt  2656  1.82   9.2    44   1.6  0.01  0.00
 2023052  21 Feb  90 2 End Veg     6075  6.42  11.6   130   2.1  0.00  0.00
 2023067   8 Mar 105 3 End Ear Gr  9304  5.59  11.6   125   1.3  0.06  0.00
 2023077  18 Mar 115 4 Beg Gr Fil 12085  4.97  11.6   125   1.0  0.00  0.00
 2023109  19 Apr 147 5 End Gr Fil 19390  1.26  11.6   181   0.9  0.29  0.00
 2023109  19 Apr 147 6 Harvest    19390  1.26  11.6   181   0.9  0.79  0.01
  

*MAIN GROWTH AND DEVELOPMENT VARIABLES

@     VARIABLE                             SIMULATED     MEASURED
      --------                             ---------     --------
      Emergence (DAP)                            3            7
      Anthesis (DAP)                           107          101
      Maturity (DAP)                           147          145
      Product wt (kg dm/ha;no loss)           6275         6560
      Product unit weight (g dm)             0.040        0.043
      Product number (no/m2)                 15570        15412
      Product number (no/group)               29.7        -99.0
      Product harvest index (ratio)           0.32         0.33
      Maximum leaf area index                  6.4          5.8
      Final leaf number (one axis)            11.6        -99.0
      Final shoot number (#/m2)                525          -99
      Canopy (tops) wt (kg dm/ha)            19390        20154
      Vegetative wt (kg dm/ha)               13116        13594
      Root wt (kg dm/ha)                      1262          -99
      Assimilate wt (kg dm/ha)               21663          -99
      Senesced wt (kg dm/ha)                   159          -99
      Reserves wt (kg dm/ha)                  7330          -99
      N uptake (kg/ha)                       200.8        -99.0
      N senesced (kg/ha)                       2.1        -99.0
      Above-ground N (kg/ha)                 181.1        -99.0
      Root N (kg/ha)                          18.4        -99.0
      Vegetative N (kg/ha)                    39.4        -99.0
      Product N (kg/ha)                      141.8        131.8
      Product N harvest index (ratio)         0.78       -99.00
      Product N (%)                            2.3          2.0
      Vegetative N (%)                         0.3        -99.0
[...]
   Dry Matter Productivity                  5.74 kg[DM]/m3[rain]          =   57.4 kg[DM]/ha per mm[rain]
   Yield Productivity                       2.22 kg[grain yield]/m3[rain] =   22.2 kg[yield]/ha per mm[rain]

 Evapotranspiration during growth season   125.8 mm[ET]
   Dry Matter Productivity                  4.02 kg[DM]/m3[ET]            =   40.2 kg[DM]/ha per mm[ET]
   Yield Productivity                       1.55 kg[grain yield]/m3[ET]   =   15.5 kg[yield]/ha per mm[ET]

 Transpiration during growth season         91.6 mm[EP]
   Dry Matter Productivity                  5.52 kg[DM]/m3[EP]            =   55.2 kg[DM]/ha per mm[EP]
   Yield Productivity                       2.13 kg[grain yield]/m3[EP]   =   21.3 kg[yield]/ha per mm[EP]

 Irrigation during growing season          120.0 mm[irrig]
   Dry Matter Productivity                  4.22 kg[DM]/m3[irrig]         =   42.2 kg[DM]/ha per mm[irrig]
   Yield Productivity                       1.63 kg[grain yield]/m3[irrig]=   16.3 kg[yield]/ha per mm[irrig]

 N applied during growing season           173.0 kg[N applied]/ha
   Dry Matter Productivity                  29.2 kg[DM]/kg[N applied]
   Yield Productivity                       11.3 kg[yield]/kg[N applied]

 N uptake during growing season             85.4 kg[N uptake]/ha
   Dry Matter Productivity                  59.3 kg[DM]/kg[N uptake]
   Yield Productivity                       22.9 kg[yield]/kg[N uptake]

--------------------------------------------------------------------------------------------------------------

          WHEAT YIELD :     1955 kg/ha    [Dry weight] 

**************************************************************************************************************
  

*DSSAT Cropping System Model Ver. 4.8.2.000 -release  JUL 07, 2025 11:09:38

*RUN  69        : DR23_G-13                 CSCER048 CIOB2302   13
 MODEL          : CSCER048 - Wheat
 EXPERIMENT     : CIOB2302 WH ROOTS ANATOMY DROUGHT
 DATA PATH      : C:\DSSAT48\Wheat\
 TREATMENT 13   : DR23_G-13                 CSCER048


 CROP           : Wheat            CULTIVAR : ENTRY 13         ECOTYPE :AZWH18
 STARTING DATE  : SEP  1 2022
 PLANTING DATE  : DEC  3 2022      PLANTS/m2 :   150.0    ROW SPACING :  36.cm
 WEATHER        : CIOB   2022
 SOIL           : CCENEB2301     TEXTURE : C     -   CIMMYT CENEB 710
 SOIL INIT COND : DEPTH:120cm EXTR. H2O: 82.8mm  NO3:252.3kg/ha  NH4:205.5kg/ha
 WATER BALANCE  : IRRIGATE ON REPORTED DATE(S)
 IRRIGATION     :      120 mm IN     1 APPLICATIONS
 NITROGEN BAL.  : SOIL-N & N-UPTAKE SIMULATION; NO N-FIXATION
 N-FERTILIZER   :      173 kg/ha IN     2 APPLICATIONS
 RESIDUE/MANURE : INITIAL :     0 kg/ha ;    2222 kg/ha IN     1 APPLICATIONS
 ENVIRONM. OPT. : DAYL=    0.00  SRAD=    0.00  TMAX=    0.00  TMIN=    0.00
                  RAIN=    0.00  CO2 =    0.00  DEW =    0.00  WIND=    0.00
 SIMULATION OPT : WATER   :Y  NITROGEN:Y  N-FIX:N  PHOSPH :N  PESTS  :N
                  PHOTO   :C  ET      :R  INFIL:S  HYDROL :R  SOM    :G
                  CO2 418ppm  NSWIT   :1  EVAP :R  SOIL   :2  STEMP  :D
 MANAGEMENT OPT : PLANTING:R  IRRIG   :R  FERT :R  RESIDUE:R  HARVEST:M
                  WEATHER :M  TILLAGE :Y

*SUMMARY OF SOIL AND GENETIC INPUT PARAMETERS

   SOIL LOWER UPPER   SAT  EXTR  INIT   ROOT   BULK     pH    NO3    NH4    ORG
  DEPTH LIMIT LIMIT    SW    SW    SW   DIST   DENS                          C
   cm   cm3/cm3    cm3/cm3    cm3/cm3         g/cm3         ugN/g  ugN/g     %
-------------------------------------------------------------------------------
  0-  5 0.143 0.204 0.268 0.061 0.204   1.00   1.35   8.80  19.00  12.00   1.10
  5- 15 0.143 0.204 0.268 0.061 0.204   1.00   1.35   8.80  19.00  12.00   1.10
 15- 30 0.143 0.204 0.268 0.061 0.204   1.00   1.35   8.80  19.00  12.00   1.10
 30- 45 0.166 0.234 0.274 0.068 0.230   0.41   1.58   8.50  18.00  16.00   0.40
 45- 60 0.166 0.234 0.274 0.068 0.230   0.41   1.58   8.50  18.00  16.00   0.40
 60- 90 0.155 0.227 0.276 0.072 0.230   0.22   1.50   8.50  20.00  18.00   0.40
 90-120 0.188 0.263 0.308 0.075 0.263   0.12   1.38   8.00   0.01   0.01   0.40

TOT-120  19.6  27.8  33.8   8.3  27.8  <--cm   -  kg/ha-->  252.3  205.5  98070
SOIL ALBEDO    : 0.13      EVAPORATION LIMIT : 6.00         MIN. FACTOR  : 1.00
RUNOFF CURVE # :61.00      DRAINAGE RATE     : 0.60         FERT. FACTOR : 1.00

 Wheat            CULTIVAR: 542933-ENTRY 13           ECOTYPE: AZWH18
   P1V   P1D    P5    G1    G2    G3 PHINT
  60.0   0.0 449.8  12.8  69.1  1.34 120.0


*SIMULATED CROP AND SOIL STATUS AT MAIN DEVELOPMENT STAGES
  
 RUN NO.     69   ROOTS ANATOMY DROUGHT                                       

 ...... DATE ......  GROWTH STAGE BIOMASS   LEAF       CROP N      STRESS
 YEARDOY DOM MON DAP ............. kg/ha AREA NUMBER  kg/ha   %   H2O    N
 2022337   3 Dec   0 7 Sowing         0  0.00   0.0     0   0.0  0.00  0.00
 2022338   4 Dec   1 8 Germinate      0  0.00   0.0     0   0.0  0.00  0.00
 2022339   5 Dec   2 9 Emergence      0  0.00   0.0     0   0.0  0.00  0.00
 2023039   8 Feb  67 1 Term Spklt  1654  1.10   9.7    27   1.6  0.26  0.00
 2023061   2 Mar  89 2 End Veg     2371  2.62  12.5    53   2.2  0.63  0.01
 2023073  14 Mar 101 3 End Ear Gr  2719  1.78  12.5    52   1.9  0.86  0.00
 2023083  24 Mar 111 4 Beg Gr Fil  4385  1.48  12.5    52   1.2  0.26  0.00
 2023107  17 Apr 135 5 End Gr Fil  5684  0.27  12.5    68   1.2  0.71  0.00
 2023107  17 Apr 135 6 Harvest     5684  0.27  12.5    68   1.2  0.70  0.00
  

*MAIN GROWTH AND DEVELOPMENT VARIABLES

@     VARIABLE                             SIMULATED     MEASURED
      --------                             ---------     --------
      Emergence (DAP)                            2            6
      Anthesis (DAP)                           104           86
      Maturity (DAP)                           135          118
      Product wt (kg dm/ha;no loss)           2467         3437
      Product unit weight (g dm)             0.069        0.039
      Product number (no/m2)                  3571         8856
      Product number (no/group)                7.3        -99.0
      Product harvest index (ratio)           0.43         0.41
      Maximum leaf area index                  2.6          4.6
      Final leaf number (one axis)            12.5        -99.0
      Final shoot number (#/m2)                491          -99
      Canopy (tops) wt (kg dm/ha)             5684         8377
      Vegetative wt (kg dm/ha)                3216         4940
      Root wt (kg dm/ha)                       572          -99
      Assimilate wt (kg dm/ha)                6902          -99
      Senesced wt (kg dm/ha)                   305          -99
      Reserves wt (kg dm/ha)                  1625          -99
      N uptake (kg/ha)                        79.9        -99.0
      N senesced (kg/ha)                       4.2        -99.0
      Above-ground N (kg/ha)                  67.7        -99.0
      Root N (kg/ha)                           9.5        -99.0
      Vegetative N (kg/ha)                    12.7        -99.0
      Product N (kg/ha)                       55.0         68.3
      Product N harvest index (ratio)         0.81       -99.00
      Product N (%)                            2.2          2.0
      Vegetative N (%)                         0.4        -99.0
      Leaf+stem wt,anthesis (kg dm/ha)        2798          -99
      Leaf+stem N,anthesis (kg/ha)            52.2        -99.0
      Leaf N,anthesis (%)                      3.0        -99.0

*ENVIRONMENTAL AND STRESS FACTORS

 |-----Development Phase------|-------------Environment--------------|----------------Stress-----------------|
                              |--------Average-------|---Cumulative--|         (0=Min, 1=Max Stress)         |
                         Time  Temp  Temp Solar Photop         Evapo |----Water---|--Nitrogen--|--Phosphorus-|
                         Span   Max   Min   Rad  [day]   Rain  Trans  Photo         Photo         Photo
                         days    °C    °C MJ/m2     hr     mm     mm  synth Growth ' synth Growth  synth Growth
--------------------------------------------------------------------------------------------------------------
 Germinate  - Term Spklt   65  25.7   6.5  14.7  11.41   10.1   44.1  0.256  0.399  0.000  0.000 -99.00 -99.00
 Term Spklt - End Veg      22  23.5   7.2  15.3  12.07   12.2   23.3  0.630  0.707  0.006  0.006 -99.00 -99.00
 End Veg    - End Ear Gr   12  29.5   7.2  21.6  12.50    0.0    6.3  0.859  0.892  0.000  0.000 -99.00 -99.00
 End Ear Gr - Beg Gr Fil   10  27.6  11.4  20.8  12.80   65.8   30.6  0.263  0.306  0.000  0.000 -99.00 -99.00
 Beg Gr Fil - End Gr Fil   24  29.9   8.0  24.6  13.28    0.0   18.1  0.712  0.778  0.000  0.000 -99.00 -99.00
  
 Germinate  - End Gr Fil  133  26.6   7.3  17.7  12.06   88.1  122.5  0.455  0.556  0.001  0.001 -99.00 -99.00
--------------------------------------------------------------------------------------------------------------


*RESOURCE PRODUCTIVITY

 Growing season length: 133 days 

 Precipitation during growth season         88.1 mm[rain]
   Dry Matter Productivity                  6.45 kg[DM]/m3[rain]          =   64.5 kg[DM]/ha per mm[rain]
   Yield Productivity                       2.80 kg[grain yield]/m3[rain] =   28.0 kg[yield]/ha per mm[rain]

 Evapotranspiration during growth season   122.5 mm[ET]
   Dry Matter Productivity                  4.64 kg[DM]/m3[ET]            =   46.4 kg[DM]/ha per mm[ET]
   Yield Productivity                       2.01 kg[grain yield]/m3[ET]   =   20.1 kg[yield]/ha per mm[ET]

 Transpiration during growth season         89.8 mm[EP]
   Dry Matter Productivity                  6.33 kg[DM]/m3[EP]            =   63.3 kg[DM]/ha per mm[EP]
   Yield Productivity                       2.75 kg[grain yield]/m3[EP]   =   27.5 kg[yield]/ha per mm[EP]

 Irrigation during growing season          120.0 mm[irrig]
   Dry Matter Productivity                  4.74 kg[DM]/m3[irrig]         =   47.4 kg[DM]/ha per mm[irrig]
   Yield Productivity                       2.06 kg[grain yield]/m3[irrig]=   20.6 kg[yield]/ha per mm[irrig]

 N applied during growing season           173.0 kg[N applied]/ha
   Dry Matter Productivity                  32.9 kg[DM]/kg[N applied]
   Yield Productivity                       14.3 kg[yield]/kg[N applied]

 N uptake during growing season             79.9 kg[N uptake]/ha
   Dry Matter Productivity                  71.1 kg[DM]/kg[N uptake]
   Yield Productivity                       30.9 kg[yield]/kg[N uptake]

--------------------------------------------------------------------------------------------------------------

          WHEAT YIELD :     2467 kg/ha    [Dry weight] 

**************************************************************************************************************
  

*DSSAT Cropping System Model Ver. 4.8.2.000 -release  JUL 07, 2025 11:09:38

*RUN  70        : DR23_G-14                 CSCER048 CIOB2302   14
 MODEL          : CSCER048 - Wheat
 EXPERIMENT     : CIOB2302 WH ROOTS ANATOMY DROUGHT
 DATA PATH      : C:\DSSAT48\Wheat\
 TREATMENT 14   : DR23_G-14                 CSCER048


 CROP           : Wheat            CULTIVAR : ENTRY 14         ECOTYPE :AZWH18
 STARTING DATE  : SEP  1 2022
 PLANTING DATE  : DEC  3 2022      PLANTS/m2 :   150.0    ROW SPACING :  36.cm
 WEATHER        : CIOB   2022
 SOIL           : CCENEB2301     TEXTURE : C     -   CIMMYT CENEB 710
 SOIL INIT COND : DEPTH:120cm EXTR. H2O: 82.8mm  NO3:252.3kg/ha  NH4:205.5kg/ha
 WATER BALANCE  : IRRIGATE ON REPORTED DATE(S)
 IRRIGATION     :      120 mm IN     1 APPLICATIONS
 NITROGEN BAL.  : SOIL-N & N-UPTAKE SIMULATION; NO N-FIXATION
 N-FERTILIZER   :      173 kg/ha IN     2 APPLICATIONS
 RESIDUE/MANURE : INITIAL :     0 kg/ha ;    2222 kg/ha IN     1 APPLICATIONS
 ENVIRONM. OPT. : DAYL=    0.00  SRAD=    0.00  TMAX=    0.00  TMIN=    0.00
                  RAIN=    0.00  CO2 =    0.00  DEW =    0.00  WIND=    0.00
 SIMULATION OPT : WATER   :Y  NITROGEN:Y  N-FIX:N  PHOSPH :N  PESTS  :N
                  PHOTO   :C  ET      :R  INFIL:S  HYDROL :R  SOM    :G
                  CO2 418ppm  NSWIT   :1  EVAP :R  SOIL   :2  STEMP  :D
 MANAGEMENT OPT : PLANTING:R  IRRIG   :R  FERT :R  RESIDUE:R  HARVEST:M
                  WEATHER :M  TILLAGE :Y

*SUMMARY OF SOIL AND GENETIC INPUT PARAMETERS

   SOIL LOWER UPPER   SAT  EXTR  INIT   ROOT   BULK     pH    NO3    NH4    ORG
  DEPTH LIMIT LIMIT    SW    SW    SW   DIST   DENS                          C
   cm   cm3/cm3    cm3/cm3    cm3/cm3         g/cm3         ugN/g  ugN/g     %
-------------------------------------------------------------------------------
  0-  5 0.143 0.204 0.268 0.061 0.204   1.00   1.35   8.80  19.00  12.00   1.10
  5- 15 0.143 0.204 0.268 0.061 0.204   1.00   1.35   8.80  19.00  12.00   1.10
 15- 30 0.143 0.204 0.268 0.061 0.204   1.00   1.35   8.80  19.00  12.00   1.10
 30- 45 0.166 0.234 0.274 0.068 0.230   0.41   1.58   8.50  18.00  16.00   0.40
 45- 60 0.166 0.234 0.274 0.068 0.230   0.41   1.58   8.50  18.00  16.00   0.40
 60- 90 0.155 0.227 0.276 0.072 0.230   0.22   1.50   8.50  20.00  18.00   0.40
 90-120 0.188 0.263 0.308 0.075 0.263   0.12   1.38   8.00   0.01   0.01   0.40

TOT-120  19.6  27.8  33.8   8.3  27.8  <--cm   -  kg/ha-->  252.3  205.5  98070
SOIL ALBEDO    : 0.13      EVAPORATION LIMIT : 6.00         MIN. FACTOR  : 1.00
RUNOFF CURVE # :61.00      DRAINAGE RATE     : 0.60         FERT. FACTOR : 1.00

 Wheat            CULTIVAR: 589328-ENTRY 14           ECOTYPE: AZWH18
   P1V   P1D    P5    G1    G2    G3 PHINT
  19.0   0.8 423.4  16.9  45.1  8.00  30.0


*SIMULATED CROP AND SOIL STATUS AT MAIN DEVELOPMENT STAGES
  
 RUN NO.     70   ROOTS ANATOMY DROUGHT                                       

 ...... DATE ......  GROWTH STAGE BIOMASS   LEAF       CROP N      STRESS
 YEARDOY DOM MON DAP ............. kg/ha AREA NUMBER  kg/ha   %   H2O    N
 2022337   3 Dec   0 7 Sowing         0  0.00   0.0     0   0.0  0.00  0.00
 2022338   4 Dec   1 8 Germinate      0  0.00   0.0     0   0.0  0.00  0.00
 2022339   5 Dec   2 9 Emergence      0  0.00   0.0     0   0.0  0.00  0.00
 2023038   7 Feb  66 1 Term Spklt   904  0.64  35.3    31   3.4  0.37  0.06
 2023060   1 Mar  88 2 End Veg     1624  1.43  46.7    48   3.0  0.54  0.00
 2023072  13 Mar 100 3 End Ear Gr  2004  0.92  46.7    47   2.4  0.79  0.00
 2023082  23 Mar 110 4 Beg Gr Fil  3027  0.71  46.7    47   1.6  0.28  0.00
 2023105  15 Apr 133 5 End Gr Fil  4945  0.14  46.7    47   1.0  0.29  0.00
 2023105  15 Apr 133 6 Harvest     4945  0.14  46.7    47   1.0  0.20  0.00
  

*MAIN GROWTH AND DEVELOPMENT VARIABLES

@     VARIABLE                             SIMULATED     MEASURED
      --------                             ---------     --------
      Emergence (DAP)                            2            6
      Anthesis (DAP)                           103           83
      Maturity (DAP)                           133          114
      Product wt (kg dm/ha;no loss)           1447         3107
      Product unit weight (g dm)             0.045        0.034
      Product number (no/m2)                  3208         9175
      Product number (no/group)                5.5        -99.0
      Product harvest index (ratio)           0.29         0.44
      Maximum leaf area index                  1.4          4.3
      Final leaf number (one axis)            46.7        -99.0
      Final shoot number (#/m2)                579          -99
      Canopy (tops) wt (kg dm/ha)             4945         7086
      Vegetative wt (kg dm/ha)                3498         3979
      Root wt (kg dm/ha)                       596          -99
      Assimilate wt (kg dm/ha)                7052          -99
      Senesced wt (kg dm/ha)                  1154          -99
      Reserves wt (kg dm/ha)                  2077          -99
      N uptake (kg/ha)                        72.0        -99.0
      N senesced (kg/ha)                      16.3        -99.0
      Above-ground N (kg/ha)                  47.2        -99.0
      Root N (kg/ha)                          10.0        -99.0
      Vegetative N (kg/ha)                    14.7        -99.0
      Product N (kg/ha)                       32.5         59.1
      Product N harvest index (ratio)         0.69       -99.00
      Product N (%)                            2.2          1.9
      Vegetative N (%)                         0.4        -99.0
      Leaf+stem wt,anthesis (kg dm/ha)        2088          -99
      Leaf+stem N,anthesis (kg/ha)            47.3        -99.0
      Leaf N,anthesis (%)                      3.0        -99.0

*ENVIRONMENTAL AND STRESS FACTORS

 |-----Development Phase------|-------------Environment--------------|----------------Stress-----------------|
                              |--------Average-------|---Cumulative--|         (0=Min, 1=Max Stress)         |
                         Time  Temp  Temp Solar Photop         Evapo |----Water---|--Nitrogen--|--Phosphorus-|
                         Span   Max   Min   Rad  [day]   Rain  Trans  Photo         Photo         Photo
                         days    °C    °C MJ/m2     hr     mm     mm  synth Growth ' synth Growth  synth Growth
--------------------------------------------------------------------------------------------------------------
 Germinate  - Term Spklt   64  25.7   6.5  14.6  11.41   10.1   45.2  0.375  0.503  0.055  0.055 -99.00 -99.00
 Term Spklt - End Veg      22  23.9   7.2  15.2  12.05   12.1   23.0  0.538  0.627  0.000  0.000 -99.00 -99.00
 End Veg    - End Ear Gr   12  28.8   7.1  21.5  12.47    0.1    6.3  0.795  0.842  0.000  0.000 -99.00 -99.00
 End Ear Gr - Beg Gr Fil   10  28.0  11.4  20.6  12.77   65.8   21.6  0.280  0.308  0.000  0.000 -99.00 -99.00
 Beg Gr Fil - End Gr Fil   23  29.6   7.8  24.5  13.24    0.0   24.6  0.289  0.405  0.000  0.000 -99.00 -99.00
  
 Germinate  - End Gr Fil  131  26.5   7.3  17.5  12.04   88.1  120.7  0.418  0.523  0.027  0.027 -99.00 -99.00
--------------------------------------------------------------------------------------------------------------


*RESOURCE PRODUCTIVITY

 Growing season length: 131 days 

 Precipitation during growth season         88.1 mm[rain]
   Dry Matter Productivity                  5.61 kg[DM]/m3[rain]          =   56.1 kg[DM]/ha per mm[rain]
   Yield Productivity                       1.64 kg[grain yield]/m3[rain] =   16.4 kg[yield]/ha per mm[rain]

 Evapotranspiration during growth season   120.7 mm[ET]
   Dry Matter Productivity                  4.10 kg[DM]/m3[ET]            =   41.0 kg[DM]/ha per mm[ET]
   Yield Productivity                       1.20 kg[grain yield]/m3[ET]   =   12.0 kg[yield]/ha per mm[ET]

 Transpiration during growth season         86.2 mm[EP]
   Dry Matter Productivity                  5.73 kg[DM]/m3[EP]            =   57.3 kg[DM]/ha per mm[EP]
   Yield Productivity                       1.68 kg[grain yield]/m3[EP]   =   16.8 kg[yield]/ha per mm[EP]

 Irrigation during growing season          120.0 mm[irrig]
   Dry Matter Productivity                  4.12 kg[DM]/m3[irrig]         =   41.2 kg[DM]/ha per mm[irrig]
   Yield Productivity                       1.21 kg[grain yield]/m3[irrig]=   12.1 kg[yield]/ha per mm[irrig]

 N applied during growing season           173.0 kg[N applied]/ha
   Dry Matter Productivity                  28.6 kg[DM]/kg[N applied]
   Yield Productivity                        8.4 kg[yield]/kg[N applied]

 N uptake during growing season             72.0 kg[N uptake]/ha
   Dry Matter Productivity                  68.6 kg[DM]/kg[N uptake]
   Yield Productivity                       20.1 kg[yield]/kg[N uptake]

--------------------------------------------------------------------------------------------------------------

          WHEAT YIELD :     1447 kg/ha    [Dry weight] 

**************************************************************************************************************
