*SIMULATION OVERVIEW FILE
  

*DSSAT Cropping System Model Ver. 4.8.2.000 -release  JUL 05, 2025 22:16:38

*RUN   1        : WW23_G-1                  CSCER048 CIOB2301    1
 MODEL          : CSCER048 - Wheat
 EXPERIMENT     : CIOB2301 WH ROOTS ANATOMY
 DATA PATH      : C:\DSSAT48\Wheat\
 TREATMENT  1   : WW23_G-1                  CSCER048


 CROP           : Wheat            CULTIVAR : ENTRY 1          ECOTYPE :DFAULT
 STARTING DATE  : SEP  1 2022
 PLANTING DATE  : NOV 23 2022      PLANTS/m2 :   137.0    ROW SPACING :  20.cm
 WEATHER        : CIOB   2022
 SOIL           : CCENEB2301     TEXTURE : C     -   CIMMYT CENEB 710
 SOIL INIT COND : DEPTH:120cm EXTR. H2O: 82.8mm  NO3:484.0kg/ha  NH4:341.8kg/ha
 WATER BALANCE  : IRRIGATE ON REPORTED DATE(S)
 IRRIGATION     :      525 mm IN     9 APPLICATIONS
 NITROGEN BAL.  : SOIL-N & N-UPTAKE SIMULATION; NO N-FIXATION
 N-FERTILIZER   :      323 kg/ha IN     3 APPLICATIONS
 RESIDUE/MANURE : INITIAL :     0 kg/ha ;    2222 kg/ha IN     1 APPLICATIONS
 ENVIRONM. OPT. : DAYL=    0.00  SRAD=    0.00  TMAX=    0.00  TMIN=    0.00
                  RAIN=    0.00  CO2 =    0.00  DEW =    0.00  WIND=    0.00
 SIMULATION OPT : WATER   :Y  NITROGEN:Y  N-FIX:N  PHOSPH :N  PESTS  :N
                  PHOTO   :C  ET      :R  INFIL:S  HYDROL :R  SOM    :G
                  CO2 418ppm  NSWIT   :1  EVAP :R  SOIL   :2  STEMP  :D
 MANAGEMENT OPT : PLANTING:R  IRRIG   :R  FERT :R  RESIDUE:R  HARVEST:M
                  WEATHER :M  TILLAGE :Y

*SUMMARY OF SOIL AND GENETIC INPUT PARAMETERS

   SOIL LOWER UPPER   SAT  EXTR  INIT   ROOT   BULK     pH    NO3    NH4    ORG
  DEPTH LIMIT LIMIT    SW    SW    SW   DIST   DENS                          C
   cm   cm3/cm3    cm3/cm3    cm3/cm3         g/cm3         ugN/g  ugN/g     %
-------------------------------------------------------------------------------
  0-  5 0.143 0.204 0.268 0.061 0.172   1.00   1.35   8.50  29.00  29.00   1.08
  5- 15 0.143 0.204 0.268 0.061 0.172   1.00   1.35   8.50  29.00  29.00   1.08
 15- 30 0.143 0.204 0.268 0.061 0.172   1.00   1.35   8.50  29.00  29.00   1.08
 30- 45 0.166 0.234 0.274 0.068 0.225   0.41   1.58   8.50  27.00  16.00   0.80
 45- 60 0.166 0.234 0.274 0.068 0.225   0.41   1.58   8.50  27.00  16.00   0.80
 60- 90 0.155 0.227 0.276 0.072 0.207   0.22   1.50   7.90  53.00  33.00   0.87
 90-120 0.188 0.263 0.308 0.075 0.263   0.12   1.38   8.00   0.01   0.01   0.40

TOT-120  19.6  27.8  33.8   8.3  26.0  <--cm   -  kg/ha-->  484.0  341.8 137370
SOIL ALBEDO    : 0.13      EVAPORATION LIMIT : 6.00         MIN. FACTOR  : 1.00
RUNOFF CURVE # :61.00      DRAINAGE RATE     : 0.60         FERT. FACTOR : 1.00

 Wheat            CULTIVAR: 555175-ENTRY 1            ECOTYPE: DFAULT
   P1V   P1D    P5    G1    G2    G3 PHINT
   5.6  96.4 478.3  15.2  54.3  5.74  30.3


*SIMULATED CROP AND SOIL STATUS AT MAIN DEVELOPMENT STAGES
  
 RUN NO.      1   ROOTS ANATOMY                                               

 ...... DATE ......  GROWTH STAGE BIOMASS   LEAF       CROP N      STRESS
 YEARDOY DOM MON DAP ............. kg/ha AREA NUMBER  kg/ha   %   H2O    N
 2022327  23 Nov   0 7 Sowing         0  0.00   0.0     0   0.0  0.00  0.00
 2022328  24 Nov   1 8 Germinate      0  0.00   0.0     0   0.0  0.00  0.00
 2022330  26 Nov   3 9 Emergence      0  0.00   0.0     0   0.0  0.00  0.00
 2023040   9 Feb  78 1 Term Spklt  3583  3.06  36.2   134   3.7  0.12  0.07
 2023054  23 Feb  92 2 End Veg     5831  5.75  41.7   186   3.2  0.00  0.00
 2023067   8 Mar 105 3 End Ear Gr  8727  4.82  41.7   182   2.1  0.02  0.00
 2023077  18 Mar 115 4 Beg Gr Fil 11476  4.07  41.7   182   1.6  0.00  0.00
 2023102  12 Apr 140 5 End Gr Fil 18718  1.14  41.7   285   1.5  0.07  0.00
 2023102  12 Apr 140 6 Harvest    18718  1.14  41.7   285   1.5  0.46  0.09
  
 BIOMASS = Above-ground dry wt (kg/ha)
 LEAF AREA  = Leaf area index (m2/m2)
 LEAF NUMBER  = Leaf number produced on main axis
 CROP N  = Above-ground N (kg/ha)
 CROP N% = Above-ground N conc (%)
 H2O STRESS = Photosynthesis stress,average (0-1,0=none)
 N STRESS = Photosynthesis stress,average (0-1,0=none)
  

*MAIN GROWTH AND DEVELOPMENT VARIABLES

@     VARIABLE                             SIMULATED     MEASURED
      --------                             ---------     --------
      Emergence (DAP)                            3            7
      Anthesis (DAP)                           107           97
      Maturity (DAP)                           140          140
      Product wt (kg dm/ha;no loss)           7685         6797
      Product unit weight (g dm)             0.054        0.047
      Product number (no/m2)                 14153        14451
      Product number (no/group)               18.3        -99.0
      Product harvest index (ratio)           0.41         0.43
      Maximum leaf area index                  5.7          5.7
      Final leaf number (one axis)            41.7        -99.0
      Final shoot number (#/m2)                771          -99
      Canopy (tops) wt (kg dm/ha)            18718        15757
      Vegetative wt (kg dm/ha)               11033         8960
      Root wt (kg dm/ha)                      1582          -99
      Assimilate wt (kg dm/ha)               23820          -99
      Senesced wt (kg dm/ha)                  2443          -99
      Reserves wt (kg dm/ha)                  4426          -99
      N uptake (kg/ha)                       341.4        -99.0
      N senesced (kg/ha)                      34.6        -99.0
      Above-ground N (kg/ha)                 284.6        -99.0
      Root N (kg/ha)                          23.1        -99.0
      Vegetative N (kg/ha)                    50.7        -99.0
      Product N (kg/ha)                      234.0        139.5
      Product N harvest index (ratio)         0.82       -99.00
      Product N (%)                            3.0          2.1
      Vegetative N (%)                         0.5        -99.0
      Leaf+stem wt,anthesis (kg dm/ha)        9302          -99
      Leaf+stem N,anthesis (kg/ha)           181.7        -99.0
      Leaf N,anthesis (%)                      3.0        -99.0

  Seed N must be added to N uptake to obtain a         
  balance with N in above-ground plus root material    

  Measured data are obtained from the A file,either    
  directly or by calculation from other other variables
  using the expressions given below:                   
                                                       
  Product wt       Harvest wt (HWAH) /                 
                               (Harvest%/100) (HPC)    
  Canopy wt        Grain wt (HWAM)+Vegetative wt (VWAm)
  Vegetative wt    Canopy wt (CWAM) - grain wt (HWAM)  
    = leaf+stem+retained dead material                 
  Product unit wt  Grain yield (HWAM)/Grain # (G#AM)   
  Product #/area   Product#/tiller (H#SM) *            
                                   tiller number (T#AM)
  Product #/group  Product#/area (H#AM) /              
                                tiller number (T#AM)   
  Harvest index    Product wt (HWAM)/Canopy wt.(CWAM)  
                                                       
  The same procedure is followed for nitrogen aspects  


*ENVIRONMENTAL AND STRESS FACTORS

 |-----Development Phase------|-------------Environment--------------|----------------Stress-----------------|
                              |--------Average-------|---Cumulative--|         (0=Min, 1=Max Stress)         |
                         Time  Temp  Temp Solar Photop         Evapo |----Water---|--Nitrogen--|--Phosphorus-|
                         Span   Max   Min   Rad  [day]   Rain  Trans  Photo         Photo         Photo
                         days    °C    °C MJ/m2     hr     mm     mm  synth Growth ' synth Growth  synth Growth
--------------------------------------------------------------------------------------------------------------
 Germinate  - Term Spklt   75  26.2   6.9  14.7  11.42   10.1  145.6  0.116  0.180  0.070  0.070 -99.00 -99.00
 Term Spklt - End Veg      14  23.3   7.8  14.7  12.00   12.1   38.7  0.000  0.000  0.000  0.000 -99.00 -99.00
 End Veg    - End Ear Gr   13  25.3   5.8  18.4  12.33    0.1   45.2  0.024  0.068  0.000  0.000 -99.00 -99.00
 End Ear Gr - Beg Gr Fil   10  29.8  10.7  20.3  12.63   65.8   42.8  0.000  0.000  0.000  0.000 -99.00 -99.00
 Beg Gr Fil - End Gr Fil   25  29.4   8.1  24.2  13.12    0.0  108.6  0.069  0.102  0.004  0.004 -99.00 -99.00
  
 Germinate  - End Gr Fil  137  26.7   7.4  17.2  11.96   88.1  380.9  0.078  0.124  0.039  0.039 -99.00 -99.00
--------------------------------------------------------------------------------------------------------------


*RESOURCE PRODUCTIVITY

 Growing season length: 137 days 

 Precipitation during growth season         88.1 mm[rain]
   Dry Matter Productivity                 21.25 kg[DM]/m3[rain]          =  212.5 kg[DM]/ha per mm[rain]
   Yield Productivity                       8.72 kg[grain yield]/m3[rain] =   87.2 kg[yield]/ha per mm[rain]

 Evapotranspiration during growth season   380.9 mm[ET]
   Dry Matter Productivity                  4.91 kg[DM]/m3[ET]            =   49.1 kg[DM]/ha per mm[ET]
   Yield Productivity                       2.02 kg[grain yield]/m3[ET]   =   20.2 kg[yield]/ha per mm[ET]

 Transpiration during growth season        320.6 mm[EP]
   Dry Matter Productivity                  5.84 kg[DM]/m3[EP]            =   58.4 kg[DM]/ha per mm[EP]
   Yield Productivity                       2.40 kg[grain yield]/m3[EP]   =   24.0 kg[yield]/ha per mm[EP]

 Irrigation during growing season          525.1 mm[irrig]
   Dry Matter Productivity                  3.56 kg[DM]/m3[irrig]         =   35.6 kg[DM]/ha per mm[irrig]
   Yield Productivity                       1.46 kg[grain yield]/m3[irrig]=   14.6 kg[yield]/ha per mm[irrig]

 N applied during growing season           323.0 kg[N applied]/ha
   Dry Matter Productivity                  58.0 kg[DM]/kg[N applied]
   Yield Productivity                       23.8 kg[yield]/kg[N applied]

 N uptake during growing season            341.4 kg[N uptake]/ha
   Dry Matter Productivity                  54.8 kg[DM]/kg[N uptake]
   Yield Productivity                       22.5 kg[yield]/kg[N uptake]

--------------------------------------------------------------------------------------------------------------

          WHEAT YIELD :     7685 kg/ha    [Dry weight] 

**************************************************************************************************************
  

*DSSAT Cropping System Model Ver. 4.8.2.000 -release  JUL 05, 2025 22:16:38

*RUN   2        : WW23_G-2                  CSCER048 CIOB2301    2
 MODEL          : CSCER048 - Wheat
 EXPERIMENT     : CIOB2301 WH ROOTS ANATOMY
 DATA PATH      : C:\DSSAT48\Wheat\
 TREATMENT  2   : WW23_G-2                  CSCER048


 CROP           : Wheat            CULTIVAR : ENTRY 2          ECOTYPE :DFAULT
 STARTING DATE  : SEP  1 2022
 PLANTING DATE  : NOV 23 2022      PLANTS/m2 :   137.0    ROW SPACING :  20.cm
 WEATHER        : CIOB   2022
 SOIL           : CCENEB2301     TEXTURE : C     -   CIMMYT CENEB 710
 SOIL INIT COND : DEPTH:120cm EXTR. H2O: 82.8mm  NO3:484.0kg/ha  NH4:341.8kg/ha
 WATER BALANCE  : IRRIGATE ON REPORTED DATE(S)
 IRRIGATION     :      525 mm IN     9 APPLICATIONS
 NITROGEN BAL.  : SOIL-N & N-UPTAKE SIMULATION; NO N-FIXATION
 N-FERTILIZER   :      323 kg/ha IN     3 APPLICATIONS
 RESIDUE/MANURE : INITIAL :     0 kg/ha ;    2222 kg/ha IN     1 APPLICATIONS
 ENVIRONM. OPT. : DAYL=    0.00  SRAD=    0.00  TMAX=    0.00  TMIN=    0.00
                  RAIN=    0.00  CO2 =    0.00  DEW =    0.00  WIND=    0.00
 SIMULATION OPT : WATER   :Y  NITROGEN:Y  N-FIX:N  PHOSPH :N  PESTS  :N
                  PHOTO   :C  ET      :R  INFIL:S  HYDROL :R  SOM    :G
                  CO2 418ppm  NSWIT   :1  EVAP :R  SOIL   :2  STEMP  :D
 MANAGEMENT OPT : PLANTING:R  IRRIG   :R  FERT :R  RESIDUE:R  HARVEST:M
                  WEATHER :M  TILLAGE :Y

*SUMMARY OF SOIL AND GENETIC INPUT PARAMETERS

   SOIL LOWER UPPER   SAT  EXTR  INIT   ROOT   BULK     pH    NO3    NH4    ORG
  DEPTH LIMIT LIMIT    SW    SW    SW   DIST   DENS                          C
   cm   cm3/cm3    cm3/cm3    cm3/cm3         g/cm3         ugN/g  ugN/g     %
-------------------------------------------------------------------------------
  0-  5 0.143 0.204 0.268 0.061 0.172   1.00   1.35   8.50  29.00  29.00   1.08
  5- 15 0.143 0.204 0.268 0.061 0.172   1.00   1.35   8.50  29.00  29.00   1.08
 15- 30 0.143 0.204 0.268 0.061 0.172   1.00   1.35   8.50  29.00  29.00   1.08
 30- 45 0.166 0.234 0.274 0.068 0.225   0.41   1.58   8.50  27.00  16.00   0.80
 45- 60 0.166 0.234 0.274 0.068 0.225   0.41   1.58   8.50  27.00  16.00   0.80
 60- 90 0.155 0.227 0.276 0.072 0.207   0.22   1.50   7.90  53.00  33.00   0.87
 90-120 0.188 0.263 0.308 0.075 0.263   0.12   1.38   8.00   0.01   0.01   0.40

TOT-120  19.6  27.8  33.8   8.3  26.0  <--cm   -  kg/ha-->  484.0  341.8 137370
SOIL ALBEDO    : 0.13      EVAPORATION LIMIT : 6.00         MIN. FACTOR  : 1.00
RUNOFF CURVE # :61.00      DRAINAGE RATE     : 0.60         FERT. FACTOR : 1.00

 Wheat            CULTIVAR: 457793-ENTRY 2            ECOTYPE: DFAULT
   P1V   P1D    P5    G1    G2    G3 PHINT
  13.9  87.6 554.7  17.9  44.0  4.03  37.6


*SIMULATED CROP AND SOIL STATUS AT MAIN DEVELOPMENT STAGES
  
 RUN NO.      2   ROOTS ANATOMY                                               

 ...... DATE ......  GROWTH STAGE BIOMASS   LEAF       CROP N      STRESS
 YEARDOY DOM MON DAP ............. kg/ha AREA NUMBER  kg/ha   %   H2O    N
 2022327  23 Nov   0 7 Sowing         0  0.00   0.0     0   0.0  0.00  0.00
 2022328  24 Nov   1 8 Germinate      0  0.00   0.0     0   0.0  0.00  0.00
 2022330  26 Nov   3 9 Emergence      0  0.00   0.0     0   0.0  0.00  0.00
 2023033   2 Feb  71 1 Term Spklt  3416  3.57  27.7   143   4.2  0.17  0.09
 2023047  16 Feb  85 2 End Veg     5892  6.11  32.2   191   3.2  0.00  0.00
 2023059  28 Feb  97 3 End Ear Gr  8245  5.20  32.2   188   2.3  0.00  0.00
 2023071  12 Mar 109 4 Beg Gr Fil 11394  4.40  32.2   187   1.6  0.04  0.00
 2023100  10 Apr 138 5 End Gr Fil 19809  1.37  32.2   274   1.4  0.03  0.00
 2023100  10 Apr 138 6 Harvest    19809  1.37  32.2   274   1.4  0.36  0.00
  

*MAIN GROWTH AND DEVELOPMENT VARIABLES

@     VARIABLE                             SIMULATED     MEASURED
      --------                             ---------     --------
      Emergence (DAP)                            3            7
      Anthesis (DAP)                           101           96
      Maturity (DAP)                           138          139
      Product wt (kg dm/ha;no loss)           7242         6933
      Product unit weight (g dm)             0.044        0.042
      Product number (no/m2)                 16459        16392
      Product number (no/group)               19.6        -99.0
      Product harvest index (ratio)           0.37         0.41
      Maximum leaf area index                  6.1          6.1
      Final leaf number (one axis)            32.2        -99.0
      Final shoot number (#/m2)                838          -99
      Canopy (tops) wt (kg dm/ha)            19809        16796
      Vegetative wt (kg dm/ha)               12567         9863
      Root wt (kg dm/ha)                      1439          -99
      Assimilate wt (kg dm/ha)               23798          -99
      Senesced wt (kg dm/ha)                  1573          -99
      Reserves wt (kg dm/ha)                  5991          -99
      N uptake (kg/ha)                       319.4        -99.0
      N senesced (kg/ha)                      22.2        -99.0
      Above-ground N (kg/ha)                 274.0        -99.0
      Root N (kg/ha)                          24.1        -99.0
      Vegetative N (kg/ha)                    55.6        -99.0
      Product N (kg/ha)                      218.4        142.3
      Product N harvest index (ratio)         0.80       -99.00
      Product N (%)                            3.0          2.1
      Vegetative N (%)                         0.4        -99.0
      Leaf+stem wt,anthesis (kg dm/ha)        9195          -99
      Leaf+stem N,anthesis (kg/ha)           187.4        -99.0
      Leaf N,anthesis (%)                      3.0        -99.0

*ENVIRONMENTAL AND STRESS FACTORS

 |-----Development Phase------|-------------Environment--------------|----------------Stress-----------------|
                              |--------Average-------|---Cumulative--|         (0=Min, 1=Max Stress)         |
                         Time  Temp  Temp Solar Photop         Evapo |----Water---|--Nitrogen--|--Phosphorus-|
                         Span   Max   Min   Rad  [day]   Rain  Trans  Photo         Photo         Photo
                         days    °C    °C MJ/m2     hr     mm     mm  synth Growth ' synth Growth  synth Growth
--------------------------------------------------------------------------------------------------------------
 Germinate  - Term Spklt   68  26.0   7.0  14.4  11.38   10.0  125.1  0.173  0.255  0.089  0.089 -99.00 -99.00
 Term Spklt - End Veg      14  25.6   6.0  16.0  11.85    3.6   43.7  0.000  0.006  0.000  0.000 -99.00 -99.00
 End Veg    - End Ear Gr   12  23.8   8.3  15.7  12.14    8.6   36.7  0.000  0.000  0.000  0.000 -99.00 -99.00
 End Ear Gr - Beg Gr Fil   12  27.7   6.6  20.1  12.45    0.1   47.1  0.038  0.087  0.000  0.000 -99.00 -99.00
 Beg Gr Fil - End Gr Fil   29  29.0   8.7  23.0  13.01   65.8  127.8  0.030  0.052  0.000  0.000 -99.00 -99.00
  
 Germinate  - End Gr Fil  135  26.6   7.3  17.1  11.94   88.1  380.4  0.097  0.148  0.045  0.045 -99.00 -99.00
--------------------------------------------------------------------------------------------------------------


*RESOURCE PRODUCTIVITY

 Growing season length: 135 days 

 Precipitation during growth season         88.1 mm[rain]
   Dry Matter Productivity                 22.48 kg[DM]/m3[rain]          =  224.8 kg[DM]/ha per mm[rain]
   Yield Productivity                       8.22 kg[grain yield]/m3[rain] =   82.2 kg[yield]/ha per mm[rain]

 Evapotranspiration during growth season   380.4 mm[ET]
   Dry Matter Productivity                  5.21 kg[DM]/m3[ET]            =   52.1 kg[DM]/ha per mm[ET]
   Yield Productivity                       1.90 kg[grain yield]/m3[ET]   =   19.0 kg[yield]/ha per mm[ET]

 Transpiration during growth season        323.6 mm[EP]
   Dry Matter Productivity                  6.12 kg[DM]/m3[EP]            =   61.2 kg[DM]/ha per mm[EP]
   Yield Productivity                       2.24 kg[grain yield]/m3[EP]   =   22.4 kg[yield]/ha per mm[EP]

 Irrigation during growing season          525.1 mm[irrig]
   Dry Matter Productivity                  3.77 kg[DM]/m3[irrig]         =   37.7 kg[DM]/ha per mm[irrig]
   Yield Productivity                       1.38 kg[grain yield]/m3[irrig]=   13.8 kg[yield]/ha per mm[irrig]

 N applied during growing season           323.0 kg[N applied]/ha
   Dry Matter Productivity                  61.3 kg[DM]/kg[N applied]
   Yield Productivity                       22.4 kg[yield]/kg[N applied]

 N uptake during growing season            319.4 kg[N uptake]/ha
   Dry Matter Productivity                  62.0 kg[DM]/kg[N uptake]
   Yield Productivity                       22.7 kg[yield]/kg[N uptake]

--------------------------------------------------------------------------------------------------------------

          WHEAT YIELD :     7242 kg/ha    [Dry weight] 

**************************************************************************************************************
  

*DSSAT Cropping System Model Ver. 4.8.2.000 -release  JUL 05, 2025 22:16:39

*RUN   3        : WW23_G-3                  CSCER048 CIOB2301    3
 MODEL          : CSCER048 - Wheat
 EXPERIMENT     : CIOB2301 WH ROOTS ANATOMY
 DATA PATH      : C:\DSSAT48\Wheat\
 TREATMENT  3   : WW23_G-3                  CSCER048


 CROP           : Wheat            CULTIVAR : ENTRY 3          ECOTYPE :DFAULT
 STARTING DATE  : SEP  1 2022
 PLANTING DATE  : NOV 23 2022      PLANTS/m2 :   137.0    ROW SPACING :  20.cm
 WEATHER        : CIOB   2022
 SOIL           : CCENEB2301     TEXTURE : C     -   CIMMYT CENEB 710
 SOIL INIT COND : DEPTH:120cm EXTR. H2O: 82.8mm  NO3:484.0kg/ha  NH4:341.8kg/ha
 WATER BALANCE  : IRRIGATE ON REPORTED DATE(S)
 IRRIGATION     :      525 mm IN     9 APPLICATIONS
 NITROGEN BAL.  : SOIL-N & N-UPTAKE SIMULATION; NO N-FIXATION
 N-FERTILIZER   :      323 kg/ha IN     3 APPLICATIONS
 RESIDUE/MANURE : INITIAL :     0 kg/ha ;    2222 kg/ha IN     1 APPLICATIONS
 ENVIRONM. OPT. : DAYL=    0.00  SRAD=    0.00  TMAX=    0.00  TMIN=    0.00
                  RAIN=    0.00  CO2 =    0.00  DEW =    0.00  WIND=    0.00
 SIMULATION OPT : WATER   :Y  NITROGEN:Y  N-FIX:N  PHOSPH :N  PESTS  :N
                  PHOTO   :C  ET      :R  INFIL:S  HYDROL :R  SOM    :G
                  CO2 418ppm  NSWIT   :1  EVAP :R  SOIL   :2  STEMP  :D
 MANAGEMENT OPT : PLANTING:R  IRRIG   :R  FERT :R  RESIDUE:R  HARVEST:M
                  WEATHER :M  TILLAGE :Y

*SUMMARY OF SOIL AND GENETIC INPUT PARAMETERS

   SOIL LOWER UPPER   SAT  EXTR  INIT   ROOT   BULK     pH    NO3    NH4    ORG
  DEPTH LIMIT LIMIT    SW    SW    SW   DIST   DENS                          C
   cm   cm3/cm3    cm3/cm3    cm3/cm3         g/cm3         ugN/g  ugN/g     %
-------------------------------------------------------------------------------
  0-  5 0.143 0.204 0.268 0.061 0.172   1.00   1.35   8.50  29.00  29.00   1.08
  5- 15 0.143 0.204 0.268 0.061 0.172   1.00   1.35   8.50  29.00  29.00   1.08
 15- 30 0.143 0.204 0.268 0.061 0.172   1.00   1.35   8.50  29.00  29.00   1.08
 30- 45 0.166 0.234 0.274 0.068 0.225   0.41   1.58   8.50  27.00  16.00   0.80
 45- 60 0.166 0.234 0.274 0.068 0.225   0.41   1.58   8.50  27.00  16.00   0.80
 60- 90 0.155 0.227 0.276 0.072 0.207   0.22   1.50   7.90  53.00  33.00   0.87
 90-120 0.188 0.263 0.308 0.075 0.263   0.12   1.38   8.00   0.01   0.01   0.40

TOT-120  19.6  27.8  33.8   8.3  26.0  <--cm   -  kg/ha-->  484.0  341.8 137370
SOIL ALBEDO    : 0.13      EVAPORATION LIMIT : 6.00         MIN. FACTOR  : 1.00
RUNOFF CURVE # :61.00      DRAINAGE RATE     : 0.60         FERT. FACTOR : 1.00

 Wheat            CULTIVAR: 518062-ENTRY 3            ECOTYPE: DFAULT
   P1V   P1D    P5    G1    G2    G3 PHINT
  26.1  84.3 611.3  17.2  50.6  8.00  36.5


*SIMULATED CROP AND SOIL STATUS AT MAIN DEVELOPMENT STAGES
  
 RUN NO.      3   ROOTS ANATOMY                                               

 ...... DATE ......  GROWTH STAGE BIOMASS   LEAF       CROP N      STRESS
 YEARDOY DOM MON DAP ............. kg/ha AREA NUMBER  kg/ha   %   H2O    N
 2022327  23 Nov   0 7 Sowing         0  0.00   0.0     0   0.0  0.00  0.00
 2022328  24 Nov   1 8 Germinate      0  0.00   0.0     0   0.0  0.00  0.00
 2022330  26 Nov   3 9 Emergence      0  0.00   0.0     0   0.0  0.00  0.00
 2023030  30 Jan  68 1 Term Spklt  3039  3.10  27.4   124   4.1  0.17  0.09
 2023043  12 Feb  81 2 End Veg     5282  5.48  31.8   175   3.3  0.00  0.00
 2023056  25 Feb  94 3 End Ear Gr  7661  4.59  31.8   172   2.2  0.00  0.00
 2023069  10 Mar 107 4 Beg Gr Fil 10975  3.83  31.8   171   1.6  0.04  0.00
 2023101  11 Apr 139 5 End Gr Fil 19915  1.07  31.8   276   1.4  0.03  0.00
 2023101  11 Apr 139 6 Harvest    19915  1.07  31.8   276   1.4  0.38  0.00
  

*MAIN GROWTH AND DEVELOPMENT VARIABLES

@     VARIABLE                             SIMULATED     MEASURED
      --------                             ---------     --------
      Emergence (DAP)                            3            7
      Anthesis (DAP)                            98           95
      Maturity (DAP)                           139          138
      Product wt (kg dm/ha;no loss)           7421         7260
      Product unit weight (g dm)             0.051        0.049
      Product number (no/m2)                 14665        14914
      Product number (no/group)               23.9        -99.0
      Product harvest index (ratio)           0.37         0.43
      Maximum leaf area index                  5.5          5.6
      Final leaf number (one axis)            31.8        -99.0
      Final shoot number (#/m2)                615          -99
      Canopy (tops) wt (kg dm/ha)            19915        16824
      Vegetative wt (kg dm/ha)               12494         9564
      Root wt (kg dm/ha)                      1343          -99
      Assimilate wt (kg dm/ha)               23583          -99
      Senesced wt (kg dm/ha)                  1414          -99
      Reserves wt (kg dm/ha)                  6382          -99
      N uptake (kg/ha)                       316.7        -99.0
      N senesced (kg/ha)                      19.9        -99.0
      Above-ground N (kg/ha)                 276.3        -99.0
      Root N (kg/ha)                          21.4        -99.0
      Vegetative N (kg/ha)                    49.3        -99.0
      Product N (kg/ha)                      226.9        139.3
      Product N harvest index (ratio)         0.82       -99.00
      Product N (%)                            3.1          1.9
      Vegetative N (%)                         0.4        -99.0
      Leaf+stem wt,anthesis (kg dm/ha)        8518          -99
      Leaf+stem N,anthesis (kg/ha)           171.1        -99.0
      Leaf N,anthesis (%)                      3.0        -99.0

*ENVIRONMENTAL AND STRESS FACTORS

 |-----Development Phase------|-------------Environment--------------|----------------Stress-----------------|
                              |--------Average-------|---Cumulative--|         (0=Min, 1=Max Stress)         |
                         Time  Temp  Temp Solar Photop         Evapo |----Water---|--Nitrogen--|--Phosphorus-|
                         Span   Max   Min   Rad  [day]   Rain  Trans  Photo         Photo         Photo
                         days    °C    °C MJ/m2     hr     mm     mm  synth Growth ' synth Growth  synth Growth
--------------------------------------------------------------------------------------------------------------
 Germinate  - Term Spklt   65  26.2   7.0  14.4  11.37   10.0  116.2  0.173  0.258  0.089  0.089 -99.00 -99.00
 Term Spklt - End Veg      13  26.3   5.8  15.8  11.77    0.1   40.2  0.000  0.008  0.000  0.000 -99.00 -99.00
 End Veg    - End Ear Gr   13  22.7   8.0  14.8  12.06   12.1   36.7  0.000  0.000  0.000  0.000 -99.00 -99.00
 End Ear Gr - Beg Gr Fil   13  26.6   6.1  19.8  12.38    0.1   48.8  0.040  0.085  0.000  0.000 -99.00 -99.00
 Beg Gr Fil - End Gr Fil   32  29.3   8.8  23.1  13.00   65.8  136.9  0.029  0.052  0.000  0.000 -99.00 -99.00
  
 Germinate  - End Gr Fil  136  26.6   7.3  17.1  11.95   88.1  378.7  0.094  0.144  0.042  0.042 -99.00 -99.00
--------------------------------------------------------------------------------------------------------------


*RESOURCE PRODUCTIVITY

 Growing season length: 136 days 

 Precipitation during growth season         88.1 mm[rain]
   Dry Matter Productivity                 22.60 kg[DM]/m3[rain]          =  226.0 kg[DM]/ha per mm[rain]
   Yield Productivity                       8.42 kg[grain yield]/m3[rain] =   84.2 kg[yield]/ha per mm[rain]

 Evapotranspiration during growth season   378.7 mm[ET]
   Dry Matter Productivity                  5.26 kg[DM]/m3[ET]            =   52.6 kg[DM]/ha per mm[ET]
   Yield Productivity                       1.96 kg[grain yield]/m3[ET]   =   19.6 kg[yield]/ha per mm[ET]

 Transpiration during growth season        317.8 mm[EP]
   Dry Matter Productivity                  6.27 kg[DM]/m3[EP]            =   62.7 kg[DM]/ha per mm[EP]
   Yield Productivity                       2.33 kg[grain yield]/m3[EP]   =   23.3 kg[yield]/ha per mm[EP]

 Irrigation during growing season          525.1 mm[irrig]
   Dry Matter Productivity                  3.79 kg[DM]/m3[irrig]         =   37.9 kg[DM]/ha per mm[irrig]
   Yield Productivity                       1.41 kg[grain yield]/m3[irrig]=   14.1 kg[yield]/ha per mm[irrig]

 N applied during growing season           323.0 kg[N applied]/ha
   Dry Matter Productivity                  61.7 kg[DM]/kg[N applied]
   Yield Productivity                       23.0 kg[yield]/kg[N applied]

 N uptake during growing season            316.7 kg[N uptake]/ha
   Dry Matter Productivity                  62.9 kg[DM]/kg[N uptake]
   Yield Productivity                       23.4 kg[yield]/kg[N uptake]

--------------------------------------------------------------------------------------------------------------

          WHEAT YIELD :     7421 kg/ha    [Dry weight] 

**************************************************************************************************************
  

*DSSAT Cropping System Model Ver. 4.8.2.000 -release  JUL 05, 2025 22:16:39

*RUN   4        : WW23_G-4                  CSCER048 CIOB2301    4
 MODEL          : CSCER048 - Wheat
 EXPERIMENT     : CIOB2301 WH ROOTS ANATOMY
 DATA PATH      : C:\DSSAT48\Wheat\
 TREATMENT  4   : WW23_G-4                  CSCER048


 CROP           : Wheat            CULTIVAR : ENTRY 4          ECOTYPE :DFAULT
 STARTING DATE  : SEP  1 2022
 PLANTING DATE  : NOV 23 2022      PLANTS/m2 :   137.0    ROW SPACING :  20.cm
 WEATHER        : CIOB   2022
 SOIL           : CCENEB2301     TEXTURE : C     -   CIMMYT CENEB 710
 SOIL INIT COND : DEPTH:120cm EXTR. H2O: 82.8mm  NO3:484.0kg/ha  NH4:341.8kg/ha
 WATER BALANCE  : IRRIGATE ON REPORTED DATE(S)
 IRRIGATION     :      525 mm IN     9 APPLICATIONS
 NITROGEN BAL.  : SOIL-N & N-UPTAKE SIMULATION; NO N-FIXATION
 N-FERTILIZER   :      323 kg/ha IN     3 APPLICATIONS
 RESIDUE/MANURE : INITIAL :     0 kg/ha ;    2222 kg/ha IN     1 APPLICATIONS
 ENVIRONM. OPT. : DAYL=    0.00  SRAD=    0.00  TMAX=    0.00  TMIN=    0.00
                  RAIN=    0.00  CO2 =    0.00  DEW =    0.00  WIND=    0.00
 SIMULATION OPT : WATER   :Y  NITROGEN:Y  N-FIX:N  PHOSPH :N  PESTS  :N
                  PHOTO   :C  ET      :R  INFIL:S  HYDROL :R  SOM    :G
                  CO2 418ppm  NSWIT   :1  EVAP :R  SOIL   :2  STEMP  :D
 MANAGEMENT OPT : PLANTING:R  IRRIG   :R  FERT :R  RESIDUE:R  HARVEST:M
                  WEATHER :M  TILLAGE :Y

*SUMMARY OF SOIL AND GENETIC INPUT PARAMETERS

   SOIL LOWER UPPER   SAT  EXTR  INIT   ROOT   BULK     pH    NO3    NH4    ORG
  DEPTH LIMIT LIMIT    SW    SW    SW   DIST   DENS                          C
   cm   cm3/cm3    cm3/cm3    cm3/cm3         g/cm3         ugN/g  ugN/g     %
-------------------------------------------------------------------------------
  0-  5 0.143 0.204 0.268 0.061 0.172   1.00   1.35   8.50  29.00  29.00   1.08
  5- 15 0.143 0.204 0.268 0.061 0.172   1.00   1.35   8.50  29.00  29.00   1.08
 15- 30 0.143 0.204 0.268 0.061 0.172   1.00   1.35   8.50  29.00  29.00   1.08
 30- 45 0.166 0.234 0.274 0.068 0.225   0.41   1.58   8.50  27.00  16.00   0.80
 45- 60 0.166 0.234 0.274 0.068 0.225   0.41   1.58   8.50  27.00  16.00   0.80
 60- 90 0.155 0.227 0.276 0.072 0.207   0.22   1.50   7.90  53.00  33.00   0.87
 90-120 0.188 0.263 0.308 0.075 0.263   0.12   1.38   8.00   0.01   0.01   0.40

TOT-120  19.6  27.8  33.8   8.3  26.0  <--cm   -  kg/ha-->  484.0  341.8 137370
SOIL ALBEDO    : 0.13      EVAPORATION LIMIT : 6.00         MIN. FACTOR  : 1.00
RUNOFF CURVE # :61.00      DRAINAGE RATE     : 0.60         FERT. FACTOR : 1.00

 Wheat            CULTIVAR: 617502-ENTRY 4            ECOTYPE: DFAULT
   P1V   P1D    P5    G1    G2    G3 PHINT
  30.1  84.0 693.6  16.7  55.7  1.47  35.5


*SIMULATED CROP AND SOIL STATUS AT MAIN DEVELOPMENT STAGES
  
 RUN NO.      4   ROOTS ANATOMY                                               

 ...... DATE ......  GROWTH STAGE BIOMASS   LEAF       CROP N      STRESS
 YEARDOY DOM MON DAP ............. kg/ha AREA NUMBER  kg/ha   %   H2O    N
 2022327  23 Nov   0 7 Sowing         0  0.00   0.0     0   0.0  0.00  0.00
 2022328  24 Nov   1 8 Germinate      0  0.00   0.0     0   0.0  0.00  0.00
 2022330  26 Nov   3 9 Emergence      0  0.00   0.0     0   0.0  0.00  0.00
 2023030  30 Jan  68 1 Term Spklt  2999  3.01  28.1   121   4.0  0.17  0.09
 2023043  12 Feb  81 2 End Veg     5239  5.46  32.6   173   3.3  0.00  0.00
 2023056  25 Feb  94 3 End Ear Gr  7621  4.73  32.6   170   2.2  0.00  0.00
 2023069  10 Mar 107 4 Beg Gr Fil 10937  4.09  32.6   169   1.5  0.04  0.00
 2023105  15 Apr 143 5 End Gr Fil 20365  1.14  32.6   286   1.4  0.13  0.01
 2023105  15 Apr 143 6 Harvest    20365  1.14  32.6   286   1.4  0.65  0.18
  

*MAIN GROWTH AND DEVELOPMENT VARIABLES

@     VARIABLE                             SIMULATED     MEASURED
      --------                             ---------     --------
      Emergence (DAP)                            3            7
      Anthesis (DAP)                            97           97
      Maturity (DAP)                           143          141
      Product wt (kg dm/ha;no loss)           7903         7183
      Product unit weight (g dm)             0.056        0.049
      Product number (no/m2)                 14188        14585
      Product number (no/group)                9.4        -99.0
      Product harvest index (ratio)           0.39         0.46
      Maximum leaf area index                  5.5          5.5
      Final leaf number (one axis)            32.6        -99.0
      Final shoot number (#/m2)               1513          -99
      Canopy (tops) wt (kg dm/ha)            20365        15767
      Vegetative wt (kg dm/ha)               12463         8584
      Root wt (kg dm/ha)                      1335          -99
      Assimilate wt (kg dm/ha)               24035          -99
      Senesced wt (kg dm/ha)                  1425          -99
      Reserves wt (kg dm/ha)                  6418          -99
      N uptake (kg/ha)                       323.5        -99.0
      N senesced (kg/ha)                      20.0        -99.0
      Above-ground N (kg/ha)                 285.5        -99.0
      Root N (kg/ha)                          18.7        -99.0
      Vegetative N (kg/ha)                    44.7        -99.0
      Product N (kg/ha)                      240.8        153.2
      Product N harvest index (ratio)         0.84       -99.00
      Product N (%)                            3.0          2.1
      Vegetative N (%)                         0.4        -99.0
      Leaf+stem wt,anthesis (kg dm/ha)        8396          -99
      Leaf+stem N,anthesis (kg/ha)           169.2        -99.0
      Leaf N,anthesis (%)                      3.0        -99.0

*ENVIRONMENTAL AND STRESS FACTORS

 |-----Development Phase------|-------------Environment--------------|----------------Stress-----------------|
                              |--------Average-------|---Cumulative--|         (0=Min, 1=Max Stress)         |
                         Time  Temp  Temp Solar Photop         Evapo |----Water---|--Nitrogen--|--Phosphorus-|
                         Span   Max   Min   Rad  [day]   Rain  Trans  Photo         Photo         Photo
                         days    °C    °C MJ/m2     hr     mm     mm  synth Growth ' synth Growth  synth Growth
--------------------------------------------------------------------------------------------------------------
 Germinate  - Term Spklt   65  26.2   7.0  14.4  11.37   10.0  115.8  0.166  0.250  0.087  0.087 -99.00 -99.00
 Term Spklt - End Veg      13  26.3   5.8  15.8  11.77    0.1   40.1  0.000  0.007  0.000  0.000 -99.00 -99.00
 End Veg    - End Ear Gr   13  22.7   8.0  14.8  12.06   12.1   36.7  0.000  0.000  0.000  0.000 -99.00 -99.00
 End Ear Gr - Beg Gr Fil   13  26.6   6.1  19.8  12.38    0.1   48.7  0.044  0.089  0.000  0.000 -99.00 -99.00
 Beg Gr Fil - End Gr Fil   36  29.4   9.1  23.2  13.05   65.8  144.4  0.129  0.161  0.006  0.006 -99.00 -99.00
  
 Germinate  - End Gr Fil  140  26.7   7.5  17.3  12.00   88.1  385.7  0.114  0.166  0.042  0.042 -99.00 -99.00
--------------------------------------------------------------------------------------------------------------


*RESOURCE PRODUCTIVITY

 Growing season length: 140 days 

 Precipitation during growth season         88.1 mm[rain]
   Dry Matter Productivity                 23.12 kg[DM]/m3[rain]          =  231.2 kg[DM]/ha per mm[rain]
   Yield Productivity                       8.97 kg[grain yield]/m3[rain] =   89.7 kg[yield]/ha per mm[rain]

 Evapotranspiration during growth season   385.7 mm[ET]
   Dry Matter Productivity                  5.28 kg[DM]/m3[ET]            =   52.8 kg[DM]/ha per mm[ET]
   Yield Productivity                       2.05 kg[grain yield]/m3[ET]   =   20.5 kg[yield]/ha per mm[ET]

 Transpiration during growth season        326.3 mm[EP]
   Dry Matter Productivity                  6.24 kg[DM]/m3[EP]            =   62.4 kg[DM]/ha per mm[EP]
   Yield Productivity                       2.42 kg[grain yield]/m3[EP]   =   24.2 kg[yield]/ha per mm[EP]

 Irrigation during growing season          525.1 mm[irrig]
   Dry Matter Productivity                  3.88 kg[DM]/m3[irrig]         =   38.8 kg[DM]/ha per mm[irrig]
   Yield Productivity                       1.50 kg[grain yield]/m3[irrig]=   15.0 kg[yield]/ha per mm[irrig]

 N applied during growing season           323.0 kg[N applied]/ha
   Dry Matter Productivity                  63.0 kg[DM]/kg[N applied]
   Yield Productivity                       24.5 kg[yield]/kg[N applied]

 N uptake during growing season            323.5 kg[N uptake]/ha
   Dry Matter Productivity                  63.0 kg[DM]/kg[N uptake]
   Yield Productivity                       24.4 kg[yield]/kg[N uptake]

--------------------------------------------------------------------------------------------------------------

          WHEAT YIELD :     7903 kg/ha    [Dry weight] 

**************************************************************************************************************
  

*DSSAT Cropping System Model Ver. 4.8.2.000 -release  JUL 05, 2025 22:16:39

*RUN   5        : WW23_G-5                  CSCER048 CIOB2301    5
 MODEL          : CSCER048 - Wheat
 EXPERIMENT     : CIOB2301 WH ROOTS ANATOMY
 DATA PATH      : C:\DSSAT48\Wheat\
 TREATMENT  5   : WW23_G-5                  CSCER048


 CROP           : Wheat            CULTIVAR : ENTRY 5          ECOTYPE :DFAULT
 STARTING DATE  : SEP  1 2022
 PLANTING DATE  : NOV 23 2022      PLANTS/m2 :   137.0    ROW SPACING :  20.cm
 WEATHER        : CIOB   2022
 SOIL           : CCENEB2301     TEXTURE : C     -   CIMMYT CENEB 710
 SOIL INIT COND : DEPTH:120cm EXTR. H2O: 82.8mm  NO3:484.0kg/ha  NH4:341.8kg/ha
 WATER BALANCE  : IRRIGATE ON REPORTED DATE(S)
 IRRIGATION     :      525 mm IN     9 APPLICATIONS
 NITROGEN BAL.  : SOIL-N & N-UPTAKE SIMULATION; NO N-FIXATION
 N-FERTILIZER   :      323 kg/ha IN     3 APPLICATIONS
 RESIDUE/MANURE : INITIAL :     0 kg/ha ;    2222 kg/ha IN     1 APPLICATIONS
 ENVIRONM. OPT. : DAYL=    0.00  SRAD=    0.00  TMAX=    0.00  TMIN=    0.00
                  RAIN=    0.00  CO2 =    0.00  DEW =    0.00  WIND=    0.00
 SIMULATION OPT : WATER   :Y  NITROGEN:Y  N-FIX:N  PHOSPH :N  PESTS  :N
                  PHOTO   :C  ET      :R  INFIL:S  HYDROL :R  SOM    :G
                  CO2 418ppm  NSWIT   :1  EVAP :R  SOIL   :2  STEMP  :D
 MANAGEMENT OPT : PLANTING:R  IRRIG   :R  FERT :R  RESIDUE:R  HARVEST:M
                  WEATHER :M  TILLAGE :Y

*SUMMARY OF SOIL AND GENETIC INPUT PARAMETERS

   SOIL LOWER UPPER   SAT  EXTR  INIT   ROOT   BULK     pH    NO3    NH4    ORG
  DEPTH LIMIT LIMIT    SW    SW    SW   DIST   DENS                          C
   cm   cm3/cm3    cm3/cm3    cm3/cm3         g/cm3         ugN/g  ugN/g     %
-------------------------------------------------------------------------------
  0-  5 0.143 0.204 0.268 0.061 0.172   1.00   1.35   8.50  29.00  29.00   1.08
  5- 15 0.143 0.204 0.268 0.061 0.172   1.00   1.35   8.50  29.00  29.00   1.08
 15- 30 0.143 0.204 0.268 0.061 0.172   1.00   1.35   8.50  29.00  29.00   1.08
 30- 45 0.166 0.234 0.274 0.068 0.225   0.41   1.58   8.50  27.00  16.00   0.80
 45- 60 0.166 0.234 0.274 0.068 0.225   0.41   1.58   8.50  27.00  16.00   0.80
 60- 90 0.155 0.227 0.276 0.072 0.207   0.22   1.50   7.90  53.00  33.00   0.87
 90-120 0.188 0.263 0.308 0.075 0.263   0.12   1.38   8.00   0.01   0.01   0.40

TOT-120  19.6  27.8  33.8   8.3  26.0  <--cm   -  kg/ha-->  484.0  341.8 137370
SOIL ALBEDO    : 0.13      EVAPORATION LIMIT : 6.00         MIN. FACTOR  : 1.00
RUNOFF CURVE # :61.00      DRAINAGE RATE     : 0.60         FERT. FACTOR : 1.00

 Wheat            CULTIVAR: 617636-ENTRY 5            ECOTYPE: DFAULT
   P1V   P1D    P5    G1    G2    G3 PHINT
   6.6  89.4 460.4  16.2  44.1  0.50  30.0


*SIMULATED CROP AND SOIL STATUS AT MAIN DEVELOPMENT STAGES
  
 RUN NO.      5   ROOTS ANATOMY                                               

 ...... DATE ......  GROWTH STAGE BIOMASS   LEAF       CROP N      STRESS
 YEARDOY DOM MON DAP ............. kg/ha AREA NUMBER  kg/ha   %   H2O    N
 2022327  23 Nov   0 7 Sowing         0  0.00   0.0     0   0.0  0.00  0.00
 2022328  24 Nov   1 8 Germinate      0  0.00   0.0     0   0.0  0.00  0.00
 2022330  26 Nov   3 9 Emergence      0  0.00   0.0     0   0.0  0.00  0.00
 2023034   3 Feb  72 1 Term Spklt  3119  2.83  33.9   125   4.0  0.13  0.08
 2023047  16 Feb  85 2 End Veg     5392  5.52  39.1   176   3.3  0.00  0.00
 2023060   1 Mar  98 3 End Ear Gr  7810  4.95  39.1   173   2.2  0.00  0.00
 2023072  13 Mar 110 4 Beg Gr Fil 11165  4.42  39.1   172   1.5  0.04  0.00
 2023096   6 Apr 134 5 End Gr Fil 18264  1.51  39.1   245   1.3  0.00  0.00
 2023096   6 Apr 134 6 Harvest    18264  1.51  39.1   245   1.3  0.00  0.00
  

*MAIN GROWTH AND DEVELOPMENT VARIABLES

@     VARIABLE                             SIMULATED     MEASURED
      --------                             ---------     --------
      Emergence (DAP)                            3            7
      Anthesis (DAP)                           101          100
      Maturity (DAP)                           134          144
      Product wt (kg dm/ha;no loss)           6356         7020
      Product unit weight (g dm)             0.044        0.049
      Product number (no/m2)                 14412        14222
      Product number (no/group)                4.8        -99.0
      Product harvest index (ratio)           0.35         0.34
      Maximum leaf area index                  5.5          5.3
      Final leaf number (one axis)            39.1        -99.0
      Final shoot number (#/m2)               3000          -99
      Canopy (tops) wt (kg dm/ha)            18264        20705
      Vegetative wt (kg dm/ha)               11908        13685
      Root wt (kg dm/ha)                      1397          -99
      Assimilate wt (kg dm/ha)               22373          -99
      Senesced wt (kg dm/ha)                  1768          -99
      Reserves wt (kg dm/ha)                  5603          -99
      N uptake (kg/ha)                       292.9        -99.0
      N senesced (kg/ha)                      25.0        -99.0
      Above-ground N (kg/ha)                 245.3        -99.0
      Root N (kg/ha)                          23.5        -99.0
      Vegetative N (kg/ha)                    51.0        -99.0
      Product N (kg/ha)                      194.3        148.5
      Product N harvest index (ratio)         0.79       -99.00
      Product N (%)                            3.1          2.1
      Vegetative N (%)                         0.4        -99.0
      Leaf+stem wt,anthesis (kg dm/ha)        8667          -99
      Leaf+stem N,anthesis (kg/ha)           171.9        -99.0
      Leaf N,anthesis (%)                      3.0        -99.0

*ENVIRONMENTAL AND STRESS FACTORS

 |-----Development Phase------|-------------Environment--------------|----------------Stress-----------------|
                              |--------Average-------|---Cumulative--|         (0=Min, 1=Max Stress)         |
                         Time  Temp  Temp Solar Photop         Evapo |----Water---|--Nitrogen--|--Phosphorus-|
                         Span   Max   Min   Rad  [day]   Rain  Trans  Photo         Photo         Photo
                         days    °C    °C MJ/m2     hr     mm     mm  synth Growth ' synth Growth  synth Growth
--------------------------------------------------------------------------------------------------------------
 Germinate  - Term Spklt   69  26.1   6.9  14.4  11.38   10.1  125.4  0.127  0.197  0.075  0.075 -99.00 -99.00
 Term Spklt - End Veg      13  25.3   6.1  16.0  11.86    3.5   39.9  0.000  0.000  0.000  0.000 -99.00 -99.00
 End Veg    - End Ear Gr   13  23.5   8.2  15.0  12.15    8.6   37.7  0.000  0.000  0.000  0.000 -99.00 -99.00
 End Ear Gr - Beg Gr Fil   12  28.8   7.1  21.5  12.47    0.1   50.7  0.039  0.088  0.000  0.000 -99.00 -99.00
 Beg Gr Fil - End Gr Fil   24  28.4   9.0  22.6  12.97   65.8  108.2  0.000  0.000  0.000  0.000 -99.00 -99.00
  
 Germinate  - End Gr Fil  131  26.4   7.4  16.8  11.90   88.1  361.8  0.070  0.112  0.040  0.040 -99.00 -99.00
--------------------------------------------------------------------------------------------------------------


*RESOURCE PRODUCTIVITY

 Growing season length: 131 days 

 Precipitation during growth season         88.1 mm[rain]
   Dry Matter Productivity                 20.73 kg[DM]/m3[rain]          =  207.3 kg[DM]/ha per mm[rain]
   Yield Productivity                       7.21 kg[grain yield]/m3[rain] =   72.1 kg[yield]/ha per mm[rain]

 Evapotranspiration during growth season   361.8 mm[ET]
   Dry Matter Productivity                  5.05 kg[DM]/m3[ET]            =   50.5 kg[DM]/ha per mm[ET]
   Yield Productivity                       1.76 kg[grain yield]/m3[ET]   =   17.6 kg[yield]/ha per mm[ET]

 Transpiration during growth season        301.5 mm[EP]
   Dry Matter Productivity                  6.06 kg[DM]/m3[EP]            =   60.6 kg[DM]/ha per mm[EP]
   Yield Productivity                       2.11 kg[grain yield]/m3[EP]   =   21.1 kg[yield]/ha per mm[EP]

 Irrigation during growing season          525.1 mm[irrig]
   Dry Matter Productivity                  3.48 kg[DM]/m3[irrig]         =   34.8 kg[DM]/ha per mm[irrig]
   Yield Productivity                       1.21 kg[grain yield]/m3[irrig]=   12.1 kg[yield]/ha per mm[irrig]

 N applied during growing season           323.0 kg[N applied]/ha
   Dry Matter Productivity                  56.5 kg[DM]/kg[N applied]
   Yield Productivity                       19.7 kg[yield]/kg[N applied]

 N uptake during growing season            292.9 kg[N uptake]/ha
   Dry Matter Productivity                  62.3 kg[DM]/kg[N uptake]
   Yield Productivity                       21.7 kg[yield]/kg[N uptake]

--------------------------------------------------------------------------------------------------------------

          WHEAT YIELD :     6356 kg/ha    [Dry weight] 

**************************************************************************************************************
  

*DSSAT Cropping System Model Ver. 4.8.2.000 -release  JUL 05, 2025 22:16:39

*RUN   6        : WW23_G-6                  CSCER048 CIOB2301    6
 MODEL          : CSCER048 - Wheat
 EXPERIMENT     : CIOB2301 WH ROOTS ANATOMY
 DATA PATH      : C:\DSSAT48\Wheat\
 TREATMENT  6   : WW23_G-6                  CSCER048


 CROP           : Wheat            CULTIVAR : ENTRY 6          ECOTYPE :DFAULT
 STARTING DATE  : SEP  1 2022
 PLANTING DATE  : NOV 23 2022      PLANTS/m2 :   137.0    ROW SPACING :  20.cm
 WEATHER        : CIOB   2022
 SOIL           : CCENEB2301     TEXTURE : C     -   CIMMYT CENEB 710
 SOIL INIT COND : DEPTH:120cm EXTR. H2O: 82.8mm  NO3:484.0kg/ha  NH4:341.8kg/ha
 WATER BALANCE  : IRRIGATE ON REPORTED DATE(S)
 IRRIGATION     :      525 mm IN     9 APPLICATIONS
 NITROGEN BAL.  : SOIL-N & N-UPTAKE SIMULATION; NO N-FIXATION
 N-FERTILIZER   :      323 kg/ha IN     3 APPLICATIONS
 RESIDUE/MANURE : INITIAL :     0 kg/ha ;    2222 kg/ha IN     1 APPLICATIONS
 ENVIRONM. OPT. : DAYL=    0.00  SRAD=    0.00  TMAX=    0.00  TMIN=    0.00
                  RAIN=    0.00  CO2 =    0.00  DEW =    0.00  WIND=    0.00
 SIMULATION OPT : WATER   :Y  NITROGEN:Y  N-FIX:N  PHOSPH :N  PESTS  :N
                  PHOTO   :C  ET      :R  INFIL:S  HYDROL :R  SOM    :G
                  CO2 418ppm  NSWIT   :1  EVAP :R  SOIL   :2  STEMP  :D
 MANAGEMENT OPT : PLANTING:R  IRRIG   :R  FERT :R  RESIDUE:R  HARVEST:M
                  WEATHER :M  TILLAGE :Y

*SUMMARY OF SOIL AND GENETIC INPUT PARAMETERS

   SOIL LOWER UPPER   SAT  EXTR  INIT   ROOT   BULK     pH    NO3    NH4    ORG
  DEPTH LIMIT LIMIT    SW    SW    SW   DIST   DENS                          C
   cm   cm3/cm3    cm3/cm3    cm3/cm3         g/cm3         ugN/g  ugN/g     %
-------------------------------------------------------------------------------
  0-  5 0.143 0.204 0.268 0.061 0.172   1.00   1.35   8.50  29.00  29.00   1.08
  5- 15 0.143 0.204 0.268 0.061 0.172   1.00   1.35   8.50  29.00  29.00   1.08
 15- 30 0.143 0.204 0.268 0.061 0.172   1.00   1.35   8.50  29.00  29.00   1.08
 30- 45 0.166 0.234 0.274 0.068 0.225   0.41   1.58   8.50  27.00  16.00   0.80
 45- 60 0.166 0.234 0.274 0.068 0.225   0.41   1.58   8.50  27.00  16.00   0.80
 60- 90 0.155 0.227 0.276 0.072 0.207   0.22   1.50   7.90  53.00  33.00   0.87
 90-120 0.188 0.263 0.308 0.075 0.263   0.12   1.38   8.00   0.01   0.01   0.40

TOT-120  19.6  27.8  33.8   8.3  26.0  <--cm   -  kg/ha-->  484.0  341.8 137370
SOIL ALBEDO    : 0.13      EVAPORATION LIMIT : 6.00         MIN. FACTOR  : 1.00
RUNOFF CURVE # :61.00      DRAINAGE RATE     : 0.60         FERT. FACTOR : 1.00

 Wheat            CULTIVAR: 474812-ENTRY 6            ECOTYPE: DFAULT
   P1V   P1D    P5    G1    G2    G3 PHINT
   5.8  95.0 465.4  17.7  42.8  2.32  31.4


*SIMULATED CROP AND SOIL STATUS AT MAIN DEVELOPMENT STAGES
  
 RUN NO.      6   ROOTS ANATOMY                                               

 ...... DATE ......  GROWTH STAGE BIOMASS   LEAF       CROP N      STRESS
 YEARDOY DOM MON DAP ............. kg/ha AREA NUMBER  kg/ha   %   H2O    N
 2022327  23 Nov   0 7 Sowing         0  0.00   0.0     0   0.0  0.00  0.00
 2022328  24 Nov   1 8 Germinate      0  0.00   0.0     0   0.0  0.00  0.00
 2022330  26 Nov   3 9 Emergence      0  0.00   0.0     0   0.0  0.00  0.00
 2023039   8 Feb  77 1 Term Spklt  3553  3.05  34.7   135   3.8  0.13  0.07
 2023053  22 Feb  91 2 End Veg     5778  5.74  40.0   184   3.2  0.00  0.00
 2023066   7 Mar 104 3 End Ear Gr  8683  4.90  40.0   180   2.1  0.02  0.00
 2023076  17 Mar 114 4 Beg Gr Fil 11411  4.21  40.0   180   1.6  0.00  0.00
 2023101  11 Apr 139 5 End Gr Fil 18831  1.25  40.0   270   1.4  0.05  0.00
 2023101  11 Apr 139 6 Harvest    18831  1.25  40.0   270   1.4  0.44  0.00
  

*MAIN GROWTH AND DEVELOPMENT VARIABLES

@     VARIABLE                             SIMULATED     MEASURED
      --------                             ---------     --------
      Emergence (DAP)                            3            7
      Anthesis (DAP)                           106          100
      Maturity (DAP)                           139          143
      Product wt (kg dm/ha;no loss)           7002         6947
      Product unit weight (g dm)             0.043        0.042
      Product number (no/m2)                 16360        16489
      Product number (no/group)               14.6        -99.0
      Product harvest index (ratio)           0.37         0.39
      Maximum leaf area index                  5.7          5.7
      Final leaf number (one axis)            40.0        -99.0
      Final shoot number (#/m2)               1121          -99
      Canopy (tops) wt (kg dm/ha)            18831        17928
      Vegetative wt (kg dm/ha)               11829        10981
      Root wt (kg dm/ha)                      1565          -99
      Assimilate wt (kg dm/ha)               23815          -99
      Senesced wt (kg dm/ha)                  2353          -99
      Reserves wt (kg dm/ha)                  5255          -99
      N uptake (kg/ha)                       326.8        -99.0
      N senesced (kg/ha)                      33.3        -99.0
      Above-ground N (kg/ha)                 269.9        -99.0
      Root N (kg/ha)                          24.4        -99.0
      Vegetative N (kg/ha)                    52.8        -99.0
      Product N (kg/ha)                      217.1        133.9
      Product N harvest index (ratio)         0.80       -99.00
      Product N (%)                            3.1          1.9
      Vegetative N (%)                         0.4        -99.0
      Leaf+stem wt,anthesis (kg dm/ha)        9223          -99
      Leaf+stem N,anthesis (kg/ha)           180.0        -99.0
      Leaf N,anthesis (%)                      3.0        -99.0

*ENVIRONMENTAL AND STRESS FACTORS

 |-----Development Phase------|-------------Environment--------------|----------------Stress-----------------|
                              |--------Average-------|---Cumulative--|         (0=Min, 1=Max Stress)         |
                         Time  Temp  Temp Solar Photop         Evapo |----Water---|--Nitrogen--|--Phosphorus-|
                         Span   Max   Min   Rad  [day]   Rain  Trans  Photo         Photo         Photo
                         days    °C    °C MJ/m2     hr     mm     mm  synth Growth ' synth Growth  synth Growth
--------------------------------------------------------------------------------------------------------------
 Germinate  - Term Spklt   74  26.2   6.9  14.6  11.41   10.1  143.0  0.126  0.193  0.072  0.072 -99.00 -99.00
 Term Spklt - End Veg      14  23.5   7.4  14.5  11.98   12.1   38.4  0.000  0.000  0.000  0.000 -99.00 -99.00
 End Veg    - End Ear Gr   13  25.0   5.8  18.4  12.30    0.1   45.1  0.023  0.067  0.000  0.000 -99.00 -99.00
 End Ear Gr - Beg Gr Fil   10  30.0  10.3  20.1  12.61   13.7   42.5  0.000  0.000  0.000  0.000 -99.00 -99.00
 Beg Gr Fil - End Gr Fil   25  29.1   8.2  24.0  13.09   52.1  111.2  0.048  0.078  0.000  0.000 -99.00 -99.00
  
 Germinate  - End Gr Fil  136  26.6   7.3  17.1  11.95   88.1  380.2  0.079  0.126  0.039  0.039 -99.00 -99.00
--------------------------------------------------------------------------------------------------------------


*RESOURCE PRODUCTIVITY

 Growing season length: 136 days 

 Precipitation during growth season         88.1 mm[rain]
   Dry Matter Productivity                 21.37 kg[DM]/m3[rain]          =  213.7 kg[DM]/ha per mm[rain]
   Yield Productivity                       7.95 kg[grain yield]/m3[rain] =   79.5 kg[yield]/ha per mm[rain]

 Evapotranspiration during growth season   380.2 mm[ET]
   Dry Matter Productivity                  4.95 kg[DM]/m3[ET]            =   49.5 kg[DM]/ha per mm[ET]
   Yield Productivity                       1.84 kg[grain yield]/m3[ET]   =   18.4 kg[yield]/ha per mm[ET]

 Transpiration during growth season        320.9 mm[EP]
   Dry Matter Productivity                  5.87 kg[DM]/m3[EP]            =   58.7 kg[DM]/ha per mm[EP]
   Yield Productivity                       2.18 kg[grain yield]/m3[EP]   =   21.8 kg[yield]/ha per mm[EP]

 Irrigation during growing season          525.1 mm[irrig]
   Dry Matter Productivity                  3.59 kg[DM]/m3[irrig]         =   35.9 kg[DM]/ha per mm[irrig]
   Yield Productivity                       1.33 kg[grain yield]/m3[irrig]=   13.3 kg[yield]/ha per mm[irrig]

 N applied during growing season           323.0 kg[N applied]/ha
   Dry Matter Productivity                  58.3 kg[DM]/kg[N applied]
   Yield Productivity                       21.7 kg[yield]/kg[N applied]

 N uptake during growing season            326.8 kg[N uptake]/ha
   Dry Matter Productivity                  57.6 kg[DM]/kg[N uptake]
   Yield Productivity                       21.4 kg[yield]/kg[N uptake]

--------------------------------------------------------------------------------------------------------------

          WHEAT YIELD :     7002 kg/ha    [Dry weight] 

**************************************************************************************************************
  

*DSSAT Cropping System Model Ver. 4.8.2.000 -release  JUL 05, 2025 22:16:39

*RUN   7        : WW23_G-7                  CSCER048 CIOB2301    7
 MODEL          : CSCER048 - Wheat
 EXPERIMENT     : CIOB2301 WH ROOTS ANATOMY
 DATA PATH      : C:\DSSAT48\Wheat\
 TREATMENT  7   : WW23_G-7                  CSCER048


 CROP           : Wheat            CULTIVAR : ENTRY 7          ECOTYPE :DFAULT
 STARTING DATE  : SEP  1 2022
 PLANTING DATE  : NOV 23 2022      PLANTS/m2 :   137.0    ROW SPACING :  20.cm
 WEATHER        : CIOB   2022
 SOIL           : CCENEB2301     TEXTURE : C     -   CIMMYT CENEB 710
 SOIL INIT COND : DEPTH:120cm EXTR. H2O: 82.8mm  NO3:484.0kg/ha  NH4:341.8kg/ha
 WATER BALANCE  : IRRIGATE ON REPORTED DATE(S)
 IRRIGATION     :      525 mm IN     9 APPLICATIONS
 NITROGEN BAL.  : SOIL-N & N-UPTAKE SIMULATION; NO N-FIXATION
 N-FERTILIZER   :      323 kg/ha IN     3 APPLICATIONS
 RESIDUE/MANURE : INITIAL :     0 kg/ha ;    2222 kg/ha IN     1 APPLICATIONS
 ENVIRONM. OPT. : DAYL=    0.00  SRAD=    0.00  TMAX=    0.00  TMIN=    0.00
                  RAIN=    0.00  CO2 =    0.00  DEW =    0.00  WIND=    0.00
 SIMULATION OPT : WATER   :Y  NITROGEN:Y  N-FIX:N  PHOSPH :N  PESTS  :N
                  PHOTO   :C  ET      :R  INFIL:S  HYDROL :R  SOM    :G
                  CO2 418ppm  NSWIT   :1  EVAP :R  SOIL   :2  STEMP  :D
 MANAGEMENT OPT : PLANTING:R  IRRIG   :R  FERT :R  RESIDUE:R  HARVEST:M
                  WEATHER :M  TILLAGE :Y

*SUMMARY OF SOIL AND GENETIC INPUT PARAMETERS

   SOIL LOWER UPPER   SAT  EXTR  INIT   ROOT   BULK     pH    NO3    NH4    ORG
  DEPTH LIMIT LIMIT    SW    SW    SW   DIST   DENS                          C
   cm   cm3/cm3    cm3/cm3    cm3/cm3         g/cm3         ugN/g  ugN/g     %
-------------------------------------------------------------------------------
  0-  5 0.143 0.204 0.268 0.061 0.172   1.00   1.35   8.50  29.00  29.00   1.08
  5- 15 0.143 0.204 0.268 0.061 0.172   1.00   1.35   8.50  29.00  29.00   1.08
 15- 30 0.143 0.204 0.268 0.061 0.172   1.00   1.35   8.50  29.00  29.00   1.08
 30- 45 0.166 0.234 0.274 0.068 0.225   0.41   1.58   8.50  27.00  16.00   0.80
 45- 60 0.166 0.234 0.274 0.068 0.225   0.41   1.58   8.50  27.00  16.00   0.80
 60- 90 0.155 0.227 0.276 0.072 0.207   0.22   1.50   7.90  53.00  33.00   0.87
 90-120 0.188 0.263 0.308 0.075 0.263   0.12   1.38   8.00   0.01   0.01   0.40

TOT-120  19.6  27.8  33.8   8.3  26.0  <--cm   -  kg/ha-->  484.0  341.8 137370
SOIL ALBEDO    : 0.13      EVAPORATION LIMIT : 6.00         MIN. FACTOR  : 1.00
RUNOFF CURVE # :61.00      DRAINAGE RATE     : 0.60         FERT. FACTOR : 1.00

 Wheat            CULTIVAR: 748117-ENTRY 7            ECOTYPE: DFAULT
   P1V   P1D    P5    G1    G2    G3 PHINT
   5.0  75.9 450.0  26.9  34.8  1.07  60.2


*SIMULATED CROP AND SOIL STATUS AT MAIN DEVELOPMENT STAGES
  
 RUN NO.      7   ROOTS ANATOMY                                               

 ...... DATE ......  GROWTH STAGE BIOMASS   LEAF       CROP N      STRESS
 YEARDOY DOM MON DAP ............. kg/ha AREA NUMBER  kg/ha   %   H2O    N
 2022327  23 Nov   0 7 Sowing         0  0.00   0.0     0   0.0  0.00  0.00
 2022328  24 Nov   1 8 Germinate      0  0.00   0.0     0   0.0  0.00  0.00
 2022330  26 Nov   3 9 Emergence      0  0.00   0.0     0   0.0  0.00  0.00
 2023019  19 Jan  57 1 Term Spklt  2195  3.34  16.4    97   4.4  0.28  0.11
 2023034   3 Feb  72 2 End Veg     4768  6.75  19.2   156   3.3  0.04  0.00
 2023047  16 Feb  85 3 End Ear Gr  7378  5.96  19.2   152   2.1  0.00  0.00
 2023059  28 Feb  97 4 Beg Gr Fil  9970  5.33  19.2   152   1.5  0.00  0.00
 2023084  25 Mar 122 5 End Gr Fil 16649  1.68  19.2   267   1.6  0.04  0.00
 2023084  25 Mar 122 6 Harvest    16649  1.68  19.2   267   1.6  0.00  0.00
  

*MAIN GROWTH AND DEVELOPMENT VARIABLES

@     VARIABLE                             SIMULATED     MEASURED
      --------                             ---------     --------
      Emergence (DAP)                            3            7
      Anthesis (DAP)                            88          101
      Maturity (DAP)                           122          142
      Product wt (kg dm/ha;no loss)           7299         6650
      Product unit weight (g dm)             0.035        0.041
      Product number (no/m2)                 20973        16031
      Product number (no/group)               14.1        -99.0
      Product harvest index (ratio)           0.44         0.41
      Maximum leaf area index                  6.7          6.7
      Final leaf number (one axis)            19.2        -99.0
      Final shoot number (#/m2)               1482          -99
      Canopy (tops) wt (kg dm/ha)            16649        16066
      Vegetative wt (kg dm/ha)                9350         9416
      Root wt (kg dm/ha)                      1141          -99
      Assimilate wt (kg dm/ha)               19258          -99
      Senesced wt (kg dm/ha)                   707          -99
      Reserves wt (kg dm/ha)                  3809          -99
      N uptake (kg/ha)                       295.4        -99.0
      N senesced (kg/ha)                       9.9        -99.0
      Above-ground N (kg/ha)                 267.2        -99.0
      Root N (kg/ha)                          19.2        -99.0
      Vegetative N (kg/ha)                    44.8        -99.0
      Product N (kg/ha)                      222.3        123.9
      Product N harvest index (ratio)         0.83       -99.00
      Product N (%)                            3.0          1.9
      Vegetative N (%)                         0.5        -99.0
      Leaf+stem wt,anthesis (kg dm/ha)        7860          -99
      Leaf+stem N,anthesis (kg/ha)           152.1        -99.0
      Leaf N,anthesis (%)                      3.0        -99.0

*ENVIRONMENTAL AND STRESS FACTORS

 |-----Development Phase------|-------------Environment--------------|----------------Stress-----------------|
                              |--------Average-------|---Cumulative--|         (0=Min, 1=Max Stress)         |
                         Time  Temp  Temp Solar Photop         Evapo |----Water---|--Nitrogen--|--Phosphorus-|
                         Span   Max   Min   Rad  [day]   Rain  Trans  Photo         Photo         Photo
                         days    °C    °C MJ/m2     hr     mm     mm  synth Growth ' synth Growth  synth Growth
--------------------------------------------------------------------------------------------------------------
 Germinate  - Term Spklt   54  26.6   7.6  14.0  11.33   10.0   87.0  0.283  0.384  0.110  0.110 -99.00 -99.00
 Term Spklt - End Veg      15  24.1   4.6  16.1  11.59    0.1   44.2  0.039  0.064  0.000  0.000 -99.00 -99.00
 End Veg    - End Ear Gr   13  25.3   6.1  16.0  11.86    3.5   40.9  0.000  0.000  0.000  0.000 -99.00 -99.00
 End Ear Gr - Beg Gr Fil   12  23.8   8.3  15.7  12.14    8.6   36.9  0.000  0.000  0.000  0.000 -99.00 -99.00
 Beg Gr Fil - End Gr Fil   25  27.9   8.9  20.8  12.62   65.9  103.1  0.043  0.070  0.000  0.000 -99.00 -99.00
  
 Germinate  - End Gr Fil  119  26.2   7.4  16.1  11.77   88.1  312.0  0.142  0.197  0.050  0.050 -99.00 -99.00
--------------------------------------------------------------------------------------------------------------


*RESOURCE PRODUCTIVITY

 Growing season length: 119 days 

 Precipitation during growth season         88.1 mm[rain]
   Dry Matter Productivity                 18.90 kg[DM]/m3[rain]          =  189.0 kg[DM]/ha per mm[rain]
   Yield Productivity                       8.28 kg[grain yield]/m3[rain] =   82.8 kg[yield]/ha per mm[rain]

 Evapotranspiration during growth season   312.0 mm[ET]
   Dry Matter Productivity                  5.34 kg[DM]/m3[ET]            =   53.4 kg[DM]/ha per mm[ET]
   Yield Productivity                       2.34 kg[grain yield]/m3[ET]   =   23.4 kg[yield]/ha per mm[ET]

 Transpiration during growth season        264.5 mm[EP]
   Dry Matter Productivity                  6.29 kg[DM]/m3[EP]            =   62.9 kg[DM]/ha per mm[EP]
   Yield Productivity                       2.76 kg[grain yield]/m3[EP]   =   27.6 kg[yield]/ha per mm[EP]

 Irrigation during growing season          478.4 mm[irrig]
   Dry Matter Productivity                  3.48 kg[DM]/m3[irrig]         =   34.8 kg[DM]/ha per mm[irrig]
   Yield Productivity                       1.53 kg[grain yield]/m3[irrig]=   15.3 kg[yield]/ha per mm[irrig]

 N applied during growing season           323.0 kg[N applied]/ha
   Dry Matter Productivity                  51.5 kg[DM]/kg[N applied]
   Yield Productivity                       22.6 kg[yield]/kg[N applied]

 N uptake during growing season            295.4 kg[N uptake]/ha
   Dry Matter Productivity                  56.4 kg[DM]/kg[N uptake]
   Yield Productivity                       24.7 kg[yield]/kg[N uptake]

--------------------------------------------------------------------------------------------------------------

          WHEAT YIELD :     7299 kg/ha    [Dry weight] 

**************************************************************************************************************
  

*DSSAT Cropping System Model Ver. 4.8.2.000 -release  JUL 05, 2025 22:16:39

*RUN   8        : WW23_G-8                  CSCER048 CIOB2301    8
 MODEL          : CSCER048 - Wheat
 EXPERIMENT     : CIOB2301 WH ROOTS ANATOMY
 DATA PATH      : C:\DSSAT48\Wheat\
 TREATMENT  8   : WW23_G-8                  CSCER048


 CROP           : Wheat            CULTIVAR : ENTRY 8          ECOTYPE :DFAULT
 STARTING DATE  : SEP  1 2022
 PLANTING DATE  : NOV 23 2022      PLANTS/m2 :   137.0    ROW SPACING :  20.cm
 WEATHER        : CIOB   2022
 SOIL           : CCENEB2301     TEXTURE : C     -   CIMMYT CENEB 710
 SOIL INIT COND : DEPTH:120cm EXTR. H2O: 82.8mm  NO3:484.0kg/ha  NH4:341.8kg/ha
 WATER BALANCE  : IRRIGATE ON REPORTED DATE(S)
 IRRIGATION     :      525 mm IN     9 APPLICATIONS
 NITROGEN BAL.  : SOIL-N & N-UPTAKE SIMULATION; NO N-FIXATION
 N-FERTILIZER   :      323 kg/ha IN     3 APPLICATIONS
 RESIDUE/MANURE : INITIAL :     0 kg/ha ;    2222 kg/ha IN     1 APPLICATIONS
 ENVIRONM. OPT. : DAYL=    0.00  SRAD=    0.00  TMAX=    0.00  TMIN=    0.00
                  RAIN=    0.00  CO2 =    0.00  DEW =    0.00  WIND=    0.00
 SIMULATION OPT : WATER   :Y  NITROGEN:Y  N-FIX:N  PHOSPH :N  PESTS  :N
                  PHOTO   :C  ET      :R  INFIL:S  HYDROL :R  SOM    :G
                  CO2 418ppm  NSWIT   :1  EVAP :R  SOIL   :2  STEMP  :D
 MANAGEMENT OPT : PLANTING:R  IRRIG   :R  FERT :R  RESIDUE:R  HARVEST:M
                  WEATHER :M  TILLAGE :Y

*SUMMARY OF SOIL AND GENETIC INPUT PARAMETERS

   SOIL LOWER UPPER   SAT  EXTR  INIT   ROOT   BULK     pH    NO3    NH4    ORG
  DEPTH LIMIT LIMIT    SW    SW    SW   DIST   DENS                          C
   cm   cm3/cm3    cm3/cm3    cm3/cm3         g/cm3         ugN/g  ugN/g     %
-------------------------------------------------------------------------------
  0-  5 0.143 0.204 0.268 0.061 0.172   1.00   1.35   8.50  29.00  29.00   1.08
  5- 15 0.143 0.204 0.268 0.061 0.172   1.00   1.35   8.50  29.00  29.00   1.08
 15- 30 0.143 0.204 0.268 0.061 0.172   1.00   1.35   8.50  29.00  29.00   1.08
 30- 45 0.166 0.234 0.274 0.068 0.225   0.41   1.58   8.50  27.00  16.00   0.80
 45- 60 0.166 0.234 0.274 0.068 0.225   0.41   1.58   8.50  27.00  16.00   0.80
 60- 90 0.155 0.227 0.276 0.072 0.207   0.22   1.50   7.90  53.00  33.00   0.87
 90-120 0.188 0.263 0.308 0.075 0.263   0.12   1.38   8.00   0.01   0.01   0.40

TOT-120  19.6  27.8  33.8   8.3  26.0  <--cm   -  kg/ha-->  484.0  341.8 137370
SOIL ALBEDO    : 0.13      EVAPORATION LIMIT : 6.00         MIN. FACTOR  : 1.00
RUNOFF CURVE # :61.00      DRAINAGE RATE     : 0.60         FERT. FACTOR : 1.00

 Wheat            CULTIVAR: 748118-ENTRY 8            ECOTYPE: DFAULT
   P1V   P1D    P5    G1    G2    G3 PHINT
   7.2  94.4 460.4  17.0  41.7  0.50  30.0


*SIMULATED CROP AND SOIL STATUS AT MAIN DEVELOPMENT STAGES
  
 RUN NO.      8   ROOTS ANATOMY                                               

 ...... DATE ......  GROWTH STAGE BIOMASS   LEAF       CROP N      STRESS
 YEARDOY DOM MON DAP ............. kg/ha AREA NUMBER  kg/ha   %   H2O    N
 2022327  23 Nov   0 7 Sowing         0  0.00   0.0     0   0.0  0.00  0.00
 2022328  24 Nov   1 8 Germinate      0  0.00   0.0     0   0.0  0.00  0.00
 2022330  26 Nov   3 9 Emergence      0  0.00   0.0     0   0.0  0.00  0.00
 2023039   8 Feb  77 1 Term Spklt  3476  2.95  36.1   131   3.8  0.12  0.07
 2023053  22 Feb  91 2 End Veg     5699  5.81  41.7   182   3.2  0.00  0.00
 2023066   7 Mar 104 3 End Ear Gr  8591  5.23  41.7   178   2.1  0.03  0.00
 2023076  17 Mar 114 4 Beg Gr Fil 11333  4.70  41.7   178   1.6  0.00  0.00
 2023101  11 Apr 139 5 End Gr Fil 18807  1.44  41.7   256   1.4  0.07  0.00
 2023101  11 Apr 139 6 Harvest    18807  1.44  41.7   256   1.4  0.51  0.00
  

*MAIN GROWTH AND DEVELOPMENT VARIABLES

@     VARIABLE                             SIMULATED     MEASURED
      --------                             ---------     --------
      Emergence (DAP)                            3            7
      Anthesis (DAP)                           106          104
      Maturity (DAP)                           139          146
      Product wt (kg dm/ha;no loss)           6495         6393
      Product unit weight (g dm)             0.042        0.041
      Product number (no/m2)                 15575        15446
      Product number (no/group)                5.2        -99.0
      Product harvest index (ratio)           0.35         0.31
      Maximum leaf area index                  5.8          5.7
      Final leaf number (one axis)            41.7        -99.0
      Final shoot number (#/m2)               3000          -99
      Canopy (tops) wt (kg dm/ha)            18807        20909
      Vegetative wt (kg dm/ha)               12313        14516
      Root wt (kg dm/ha)                      1551          -99
      Assimilate wt (kg dm/ha)               23748          -99
      Senesced wt (kg dm/ha)                  2334          -99
      Reserves wt (kg dm/ha)                  5604          -99
      N uptake (kg/ha)                       312.9        -99.0
      N senesced (kg/ha)                      33.0        -99.0
      Above-ground N (kg/ha)                 256.0        -99.0
      Root N (kg/ha)                          24.7        -99.0
      Vegetative N (kg/ha)                    53.4        -99.0
      Product N (kg/ha)                      202.6        141.9
      Product N harvest index (ratio)         0.79       -99.00
      Product N (%)                            3.1          2.2
      Vegetative N (%)                         0.4        -99.0
      Leaf+stem wt,anthesis (kg dm/ha)        9132          -99
      Leaf+stem N,anthesis (kg/ha)           177.9        -99.0
      Leaf N,anthesis (%)                      3.0        -99.0

*ENVIRONMENTAL AND STRESS FACTORS

 |-----Development Phase------|-------------Environment--------------|----------------Stress-----------------|
                              |--------Average-------|---Cumulative--|         (0=Min, 1=Max Stress)         |
                         Time  Temp  Temp Solar Photop         Evapo |----Water---|--Nitrogen--|--Phosphorus-|
                         Span   Max   Min   Rad  [day]   Rain  Trans  Photo         Photo         Photo
                         days    °C    °C MJ/m2     hr     mm     mm  synth Growth ' synth Growth  synth Growth
--------------------------------------------------------------------------------------------------------------
 Germinate  - Term Spklt   74  26.2   6.9  14.6  11.41   10.1  142.0  0.118  0.183  0.072  0.072 -99.00 -99.00
 Term Spklt - End Veg      14  23.5   7.4  14.5  11.98   12.1   38.3  0.000  0.000  0.000  0.000 -99.00 -99.00
 End Veg    - End Ear Gr   13  25.0   5.8  18.4  12.30    0.1   45.0  0.028  0.073  0.000  0.000 -99.00 -99.00
 End Ear Gr - Beg Gr Fil   10  30.0  10.3  20.1  12.61   13.7   42.7  0.000  0.000  0.000  0.000 -99.00 -99.00
 Beg Gr Fil - End Gr Fil   25  29.1   8.2  24.0  13.09   52.1  112.4  0.066  0.097  0.000  0.000 -99.00 -99.00
  
 Germinate  - End Gr Fil  136  26.6   7.3  17.1  11.95   88.1  380.4  0.079  0.124  0.039  0.039 -99.00 -99.00
--------------------------------------------------------------------------------------------------------------


*RESOURCE PRODUCTIVITY

 Growing season length: 136 days 

 Precipitation during growth season         88.1 mm[rain]
   Dry Matter Productivity                 21.35 kg[DM]/m3[rain]          =  213.5 kg[DM]/ha per mm[rain]
   Yield Productivity                       7.37 kg[grain yield]/m3[rain] =   73.7 kg[yield]/ha per mm[rain]

 Evapotranspiration during growth season   380.4 mm[ET]
   Dry Matter Productivity                  4.94 kg[DM]/m3[ET]            =   49.4 kg[DM]/ha per mm[ET]
   Yield Productivity                       1.71 kg[grain yield]/m3[ET]   =   17.1 kg[yield]/ha per mm[ET]

 Transpiration during growth season        321.6 mm[EP]
   Dry Matter Productivity                  5.85 kg[DM]/m3[EP]            =   58.5 kg[DM]/ha per mm[EP]
   Yield Productivity                       2.02 kg[grain yield]/m3[EP]   =   20.2 kg[yield]/ha per mm[EP]

 Irrigation during growing season          525.1 mm[irrig]
   Dry Matter Productivity                  3.58 kg[DM]/m3[irrig]         =   35.8 kg[DM]/ha per mm[irrig]
   Yield Productivity                       1.24 kg[grain yield]/m3[irrig]=   12.4 kg[yield]/ha per mm[irrig]

 N applied during growing season           323.0 kg[N applied]/ha
   Dry Matter Productivity                  58.2 kg[DM]/kg[N applied]
   Yield Productivity                       20.1 kg[yield]/kg[N applied]

 N uptake during growing season            312.9 kg[N uptake]/ha
   Dry Matter Productivity                  60.1 kg[DM]/kg[N uptake]
   Yield Productivity                       20.8 kg[yield]/kg[N uptake]

--------------------------------------------------------------------------------------------------------------

          WHEAT YIELD :     6495 kg/ha    [Dry weight] 

**************************************************************************************************************
  

*DSSAT Cropping System Model Ver. 4.8.2.000 -release  JUL 05, 2025 22:16:39

*RUN   9        : WW23_G-9                  CSCER048 CIOB2301    9
 MODEL          : CSCER048 - Wheat
 EXPERIMENT     : CIOB2301 WH ROOTS ANATOMY
 DATA PATH      : C:\DSSAT48\Wheat\
 TREATMENT  9   : WW23_G-9                  CSCER048


 CROP           : Wheat            CULTIVAR : ENTRY 9          ECOTYPE :DFAULT
 STARTING DATE  : SEP  1 2022
 PLANTING DATE  : NOV 23 2022      PLANTS/m2 :   137.0    ROW SPACING :  20.cm
 WEATHER        : CIOB   2022
 SOIL           : CCENEB2301     TEXTURE : C     -   CIMMYT CENEB 710
 SOIL INIT COND : DEPTH:120cm EXTR. H2O: 82.8mm  NO3:484.0kg/ha  NH4:341.8kg/ha
 WATER BALANCE  : IRRIGATE ON REPORTED DATE(S)
 IRRIGATION     :      525 mm IN     9 APPLICATIONS
 NITROGEN BAL.  : SOIL-N & N-UPTAKE SIMULATION; NO N-FIXATION
 N-FERTILIZER   :      323 kg/ha IN     3 APPLICATIONS
 RESIDUE/MANURE : INITIAL :     0 kg/ha ;    2222 kg/ha IN     1 APPLICATIONS
 ENVIRONM. OPT. : DAYL=    0.00  SRAD=    0.00  TMAX=    0.00  TMIN=    0.00
                  RAIN=    0.00  CO2 =    0.00  DEW =    0.00  WIND=    0.00
 SIMULATION OPT : WATER   :Y  NITROGEN:Y  N-FIX:N  PHOSPH :N  PESTS  :N
                  PHOTO   :C  ET      :R  INFIL:S  HYDROL :R  SOM    :G
                  CO2 418ppm  NSWIT   :1  EVAP :R  SOIL   :2  STEMP  :D
 MANAGEMENT OPT : PLANTING:R  IRRIG   :R  FERT :R  RESIDUE:R  HARVEST:M
                  WEATHER :M  TILLAGE :Y

*SUMMARY OF SOIL AND GENETIC INPUT PARAMETERS

   SOIL LOWER UPPER   SAT  EXTR  INIT   ROOT   BULK     pH    NO3    NH4    ORG
  DEPTH LIMIT LIMIT    SW    SW    SW   DIST   DENS                          C
   cm   cm3/cm3    cm3/cm3    cm3/cm3         g/cm3         ugN/g  ugN/g     %
-------------------------------------------------------------------------------
  0-  5 0.143 0.204 0.268 0.061 0.172   1.00   1.35   8.50  29.00  29.00   1.08
  5- 15 0.143 0.204 0.268 0.061 0.172   1.00   1.35   8.50  29.00  29.00   1.08
 15- 30 0.143 0.204 0.268 0.061 0.172   1.00   1.35   8.50  29.00  29.00   1.08
 30- 45 0.166 0.234 0.274 0.068 0.225   0.41   1.58   8.50  27.00  16.00   0.80
 45- 60 0.166 0.234 0.274 0.068 0.225   0.41   1.58   8.50  27.00  16.00   0.80
 60- 90 0.155 0.227 0.276 0.072 0.207   0.22   1.50   7.90  53.00  33.00   0.87
 90-120 0.188 0.263 0.308 0.075 0.263   0.12   1.38   8.00   0.01   0.01   0.40

TOT-120  19.6  27.8  33.8   8.3  26.0  <--cm   -  kg/ha-->  484.0  341.8 137370
SOIL ALBEDO    : 0.13      EVAPORATION LIMIT : 6.00         MIN. FACTOR  : 1.00
RUNOFF CURVE # :61.00      DRAINAGE RATE     : 0.60         FERT. FACTOR : 1.00

 Wheat            CULTIVAR: 474804-ENTRY 9            ECOTYPE: DFAULT
   P1V   P1D    P5    G1    G2    G3 PHINT
   5.0  82.6 450.9  18.3  40.7  0.50  40.4


*SIMULATED CROP AND SOIL STATUS AT MAIN DEVELOPMENT STAGES
  
 RUN NO.      9   ROOTS ANATOMY                                               

 ...... DATE ......  GROWTH STAGE BIOMASS   LEAF       CROP N      STRESS
 YEARDOY DOM MON DAP ............. kg/ha AREA NUMBER  kg/ha   %   H2O    N
 2022327  23 Nov   0 7 Sowing         0  0.00   0.0     0   0.0  0.00  0.00
 2022328  24 Nov   1 8 Germinate      0  0.00   0.0     0   0.0  0.00  0.00
 2022330  26 Nov   3 9 Emergence      0  0.00   0.0     0   0.0  0.00  0.00
 2023026  26 Jan  64 1 Term Spklt  2721  3.09  24.1   112   4.1  0.20  0.10
 2023040   9 Feb  78 2 End Veg     5238  5.80  28.3   167   3.2  0.00  0.00
 2023052  21 Feb  90 3 End Ear Gr  7292  5.26  28.3   165   2.3  0.00  0.00
 2023066   7 Mar 104 4 Beg Gr Fil 10603  4.69  28.3   164   1.5  0.06  0.00
 2023089  30 Mar 127 5 End Gr Fil 17232  1.70  28.3   236   1.4  0.00  0.00
 2023089  30 Mar 127 6 Harvest    17232  1.70  28.3   236   1.4  0.00  0.00
  

*MAIN GROWTH AND DEVELOPMENT VARIABLES

@     VARIABLE                             SIMULATED     MEASURED
      --------                             ---------     --------
      Emergence (DAP)                            3            7
      Anthesis (DAP)                            94          101
      Maturity (DAP)                           127          145
      Product wt (kg dm/ha;no loss)           6094         6560
      Product unit weight (g dm)             0.041        0.043
      Product number (no/m2)                 14972        15412
      Product number (no/group)                5.0        -99.0
      Product harvest index (ratio)           0.35         0.33
      Maximum leaf area index                  5.8          5.8
      Final leaf number (one axis)            28.3        -99.0
      Final shoot number (#/m2)               2997          -99
      Canopy (tops) wt (kg dm/ha)            17232        20154
      Vegetative wt (kg dm/ha)               11139        13594
      Root wt (kg dm/ha)                      1241          -99
      Assimilate wt (kg dm/ha)               20434          -99
      Senesced wt (kg dm/ha)                  1130          -99
      Reserves wt (kg dm/ha)                  5208          -99
      N uptake (kg/ha)                       272.2        -99.0
      N senesced (kg/ha)                      15.9        -99.0
      Above-ground N (kg/ha)                 236.2        -99.0
      Root N (kg/ha)                          20.9        -99.0
      Vegetative N (kg/ha)                    49.7        -99.0
      Product N (kg/ha)                      186.5        131.8
      Product N harvest index (ratio)         0.79       -99.00
      Product N (%)                            3.1          2.0
      Vegetative N (%)                         0.4        -99.0
[...]
   Dry Matter Productivity                  5.88 kg[DM]/m3[rain]          =   58.8 kg[DM]/ha per mm[rain]
   Yield Productivity                       1.84 kg[grain yield]/m3[rain] =   18.4 kg[yield]/ha per mm[rain]

 Evapotranspiration during growth season   121.1 mm[ET]
   Dry Matter Productivity                  4.28 kg[DM]/m3[ET]            =   42.8 kg[DM]/ha per mm[ET]
   Yield Productivity                       1.34 kg[grain yield]/m3[ET]   =   13.4 kg[yield]/ha per mm[ET]

 Transpiration during growth season         87.1 mm[EP]
   Dry Matter Productivity                  5.94 kg[DM]/m3[EP]            =   59.4 kg[DM]/ha per mm[EP]
   Yield Productivity                       1.86 kg[grain yield]/m3[EP]   =   18.6 kg[yield]/ha per mm[EP]

 Irrigation during growing season          120.0 mm[irrig]
   Dry Matter Productivity                  4.31 kg[DM]/m3[irrig]         =   43.1 kg[DM]/ha per mm[irrig]
   Yield Productivity                       1.35 kg[grain yield]/m3[irrig]=   13.5 kg[yield]/ha per mm[irrig]

 N applied during growing season           173.0 kg[N applied]/ha
   Dry Matter Productivity                  29.9 kg[DM]/kg[N applied]
   Yield Productivity                        9.4 kg[yield]/kg[N applied]

 N uptake during growing season             81.4 kg[N uptake]/ha
   Dry Matter Productivity                  63.6 kg[DM]/kg[N uptake]
   Yield Productivity                       19.9 kg[yield]/kg[N uptake]

--------------------------------------------------------------------------------------------------------------

          WHEAT YIELD :     1623 kg/ha    [Dry weight] 

**************************************************************************************************************
  

*DSSAT Cropping System Model Ver. 4.8.2.000 -release  JUL 05, 2025 22:16:42

*RUN  69        : DR23_G-13                 CSCER048 CIOB2302   13
 MODEL          : CSCER048 - Wheat
 EXPERIMENT     : CIOB2302 WH ROOTS ANATOMY DROUGHT
 DATA PATH      : C:\DSSAT48\Wheat\
 TREATMENT 13   : DR23_G-13                 CSCER048


 CROP           : Wheat            CULTIVAR : ENTRY 13         ECOTYPE :DFAULT
 STARTING DATE  : SEP  1 2022
 PLANTING DATE  : DEC  3 2022      PLANTS/m2 :   150.0    ROW SPACING :  36.cm
 WEATHER        : CIOB   2022
 SOIL           : CCENEB2301     TEXTURE : C     -   CIMMYT CENEB 710
 SOIL INIT COND : DEPTH:120cm EXTR. H2O: 82.8mm  NO3:252.3kg/ha  NH4:205.5kg/ha
 WATER BALANCE  : IRRIGATE ON REPORTED DATE(S)
 IRRIGATION     :      120 mm IN     1 APPLICATIONS
 NITROGEN BAL.  : SOIL-N & N-UPTAKE SIMULATION; NO N-FIXATION
 N-FERTILIZER   :      173 kg/ha IN     2 APPLICATIONS
 RESIDUE/MANURE : INITIAL :     0 kg/ha ;    2222 kg/ha IN     1 APPLICATIONS
 ENVIRONM. OPT. : DAYL=    0.00  SRAD=    0.00  TMAX=    0.00  TMIN=    0.00
                  RAIN=    0.00  CO2 =    0.00  DEW =    0.00  WIND=    0.00
 SIMULATION OPT : WATER   :Y  NITROGEN:Y  N-FIX:N  PHOSPH :N  PESTS  :N
                  PHOTO   :C  ET      :R  INFIL:S  HYDROL :R  SOM    :G
                  CO2 418ppm  NSWIT   :1  EVAP :R  SOIL   :2  STEMP  :D
 MANAGEMENT OPT : PLANTING:R  IRRIG   :R  FERT :R  RESIDUE:R  HARVEST:M
                  WEATHER :M  TILLAGE :Y

*SUMMARY OF SOIL AND GENETIC INPUT PARAMETERS

   SOIL LOWER UPPER   SAT  EXTR  INIT   ROOT   BULK     pH    NO3    NH4    ORG
  DEPTH LIMIT LIMIT    SW    SW    SW   DIST   DENS                          C
   cm   cm3/cm3    cm3/cm3    cm3/cm3         g/cm3         ugN/g  ugN/g     %
-------------------------------------------------------------------------------
  0-  5 0.143 0.204 0.268 0.061 0.204   1.00   1.35   8.80  19.00  12.00   1.10
  5- 15 0.143 0.204 0.268 0.061 0.204   1.00   1.35   8.80  19.00  12.00   1.10
 15- 30 0.143 0.204 0.268 0.061 0.204   1.00   1.35   8.80  19.00  12.00   1.10
 30- 45 0.166 0.234 0.274 0.068 0.230   0.41   1.58   8.50  18.00  16.00   0.40
 45- 60 0.166 0.234 0.274 0.068 0.230   0.41   1.58   8.50  18.00  16.00   0.40
 60- 90 0.155 0.227 0.276 0.072 0.230   0.22   1.50   8.50  20.00  18.00   0.40
 90-120 0.188 0.263 0.308 0.075 0.263   0.12   1.38   8.00   0.01   0.01   0.40

TOT-120  19.6  27.8  33.8   8.3  27.8  <--cm   -  kg/ha-->  252.3  205.5  98070
SOIL ALBEDO    : 0.13      EVAPORATION LIMIT : 6.00         MIN. FACTOR  : 1.00
RUNOFF CURVE # :61.00      DRAINAGE RATE     : 0.60         FERT. FACTOR : 1.00

 Wheat            CULTIVAR: 542933-ENTRY 13           ECOTYPE: DFAULT
   P1V   P1D    P5    G1    G2    G3 PHINT
   8.2  88.2 457.2  14.6  46.7  4.26  35.1


*SIMULATED CROP AND SOIL STATUS AT MAIN DEVELOPMENT STAGES
  
 RUN NO.     69   ROOTS ANATOMY DROUGHT                                       

 ...... DATE ......  GROWTH STAGE BIOMASS   LEAF       CROP N      STRESS
 YEARDOY DOM MON DAP ............. kg/ha AREA NUMBER  kg/ha   %   H2O    N
 2022337   3 Dec   0 7 Sowing         0  0.00   0.0     0   0.0  0.00  0.00
 2022338   4 Dec   1 8 Germinate      0  0.00   0.0     0   0.0  0.00  0.00
 2022339   5 Dec   2 9 Emergence      0  0.00   0.0     0   0.0  0.00  0.00
 2023039   8 Feb  67 1 Term Spklt  1036  0.92  27.6    39   3.8  0.45  0.07
 2023053  22 Feb  81 2 End Veg     1509  1.42  32.4    46   3.0  0.53  0.00
 2023066   7 Mar  94 3 End Ear Gr  2011  0.92  32.4    45   2.2  0.67  0.00
 2023076  17 Mar 104 4 Beg Gr Fil  2314  0.64  32.4    45   1.9  0.74  0.00
 2023100  10 Apr 128 5 End Gr Fil  4811  0.21  32.4    51   1.1  0.13  0.00
 2023100  10 Apr 128 6 Harvest     4811  0.21  32.4    51   1.1  0.28  0.00
  

*MAIN GROWTH AND DEVELOPMENT VARIABLES

@     VARIABLE                             SIMULATED     MEASURED
      --------                             ---------     --------
      Emergence (DAP)                            2            6
      Anthesis (DAP)                            96           86
      Maturity (DAP)                           128          118
      Product wt (kg dm/ha;no loss)           1316         3437
      Product unit weight (g dm)             0.047        0.039
      Product number (no/m2)                  2819         8856
      Product number (no/group)                5.0        -99.0
      Product harvest index (ratio)           0.27         0.41
      Maximum leaf area index                  1.4          4.6
      Final leaf number (one axis)            32.4        -99.0
      Final shoot number (#/m2)                565          -99
      Canopy (tops) wt (kg dm/ha)             4811         8377
      Vegetative wt (kg dm/ha)                3494         4940
      Root wt (kg dm/ha)                       579          -99
      Assimilate wt (kg dm/ha)                6711          -99
      Senesced wt (kg dm/ha)                   977          -99
      Reserves wt (kg dm/ha)                  2139          -99
      N uptake (kg/ha)                        73.2        -99.0
      N senesced (kg/ha)                      13.8        -99.0
      Above-ground N (kg/ha)                  51.1        -99.0
      Root N (kg/ha)                           9.7        -99.0
      Vegetative N (kg/ha)                    11.5        -99.0
      Product N (kg/ha)                       39.6         68.3
      Product N harvest index (ratio)         0.78       -99.00
      Product N (%)                            3.0          2.0
      Vegetative N (%)                         0.3        -99.0
      Leaf+stem wt,anthesis (kg dm/ha)        2073          -99
      Leaf+stem N,anthesis (kg/ha)            44.5        -99.0
      Leaf N,anthesis (%)                      3.0        -99.0

*ENVIRONMENTAL AND STRESS FACTORS

 |-----Development Phase------|-------------Environment--------------|----------------Stress-----------------|
                              |--------Average-------|---Cumulative--|         (0=Min, 1=Max Stress)         |
                         Time  Temp  Temp Solar Photop         Evapo |----Water---|--Nitrogen--|--Phosphorus-|
                         Span   Max   Min   Rad  [day]   Rain  Trans  Photo         Photo         Photo
                         days    °C    °C MJ/m2     hr     mm     mm  synth Growth ' synth Growth  synth Growth
--------------------------------------------------------------------------------------------------------------
 Germinate  - Term Spklt   65  25.7   6.5  14.7  11.41   10.1   46.2  0.453  0.567  0.067  0.067 -99.00 -99.00
 Term Spklt - End Veg      14  23.5   7.4  14.5  11.98   12.1   16.0  0.528  0.618  0.000  0.000 -99.00 -99.00
 End Veg    - End Ear Gr   13  25.0   5.8  18.4  12.30    0.1    9.8  0.672  0.748  0.000  0.000 -99.00 -99.00
 End Ear Gr - Beg Gr Fil   10  30.0  10.3  20.1  12.61   13.7    4.4  0.737  0.798  0.000  0.000 -99.00 -99.00
 Beg Gr Fil - End Gr Fil   24  28.9   8.2  24.0  13.08   52.1   40.7  0.128  0.210  0.000  0.000 -99.00 -99.00
  
 Germinate  - End Gr Fil  126  26.4   7.1  17.3  11.98   88.1  117.1  0.445  0.541  0.034  0.034 -99.00 -99.00
--------------------------------------------------------------------------------------------------------------


*RESOURCE PRODUCTIVITY

 Growing season length: 126 days 

 Precipitation during growth season         88.1 mm[rain]
   Dry Matter Productivity                  5.46 kg[DM]/m3[rain]          =   54.6 kg[DM]/ha per mm[rain]
   Yield Productivity                       1.49 kg[grain yield]/m3[rain] =   14.9 kg[yield]/ha per mm[rain]

 Evapotranspiration during growth season   117.1 mm[ET]
   Dry Matter Productivity                  4.11 kg[DM]/m3[ET]            =   41.1 kg[DM]/ha per mm[ET]
   Yield Productivity                       1.12 kg[grain yield]/m3[ET]   =   11.2 kg[yield]/ha per mm[ET]

 Transpiration during growth season         82.8 mm[EP]
   Dry Matter Productivity                  5.81 kg[DM]/m3[EP]            =   58.1 kg[DM]/ha per mm[EP]
   Yield Productivity                       1.59 kg[grain yield]/m3[EP]   =   15.9 kg[yield]/ha per mm[EP]

 Irrigation during growing season          120.0 mm[irrig]
   Dry Matter Productivity                  4.01 kg[DM]/m3[irrig]         =   40.1 kg[DM]/ha per mm[irrig]
   Yield Productivity                       1.10 kg[grain yield]/m3[irrig]=   11.0 kg[yield]/ha per mm[irrig]

 N applied during growing season           173.0 kg[N applied]/ha
   Dry Matter Productivity                  27.8 kg[DM]/kg[N applied]
   Yield Productivity                        7.6 kg[yield]/kg[N applied]

 N uptake during growing season             73.2 kg[N uptake]/ha
   Dry Matter Productivity                  65.7 kg[DM]/kg[N uptake]
   Yield Productivity                       18.0 kg[yield]/kg[N uptake]

--------------------------------------------------------------------------------------------------------------

          WHEAT YIELD :     1316 kg/ha    [Dry weight] 

**************************************************************************************************************
  

*DSSAT Cropping System Model Ver. 4.8.2.000 -release  JUL 05, 2025 22:16:42

*RUN  70        : DR23_G-14                 CSCER048 CIOB2302   14
 MODEL          : CSCER048 - Wheat
 EXPERIMENT     : CIOB2302 WH ROOTS ANATOMY DROUGHT
 DATA PATH      : C:\DSSAT48\Wheat\
 TREATMENT 14   : DR23_G-14                 CSCER048


 CROP           : Wheat            CULTIVAR : ENTRY 14         ECOTYPE :DFAULT
 STARTING DATE  : SEP  1 2022
 PLANTING DATE  : DEC  3 2022      PLANTS/m2 :   150.0    ROW SPACING :  36.cm
 WEATHER        : CIOB   2022
 SOIL           : CCENEB2301     TEXTURE : C     -   CIMMYT CENEB 710
 SOIL INIT COND : DEPTH:120cm EXTR. H2O: 82.8mm  NO3:252.3kg/ha  NH4:205.5kg/ha
 WATER BALANCE  : IRRIGATE ON REPORTED DATE(S)
 IRRIGATION     :      120 mm IN     1 APPLICATIONS
 NITROGEN BAL.  : SOIL-N & N-UPTAKE SIMULATION; NO N-FIXATION
 N-FERTILIZER   :      173 kg/ha IN     2 APPLICATIONS
 RESIDUE/MANURE : INITIAL :     0 kg/ha ;    2222 kg/ha IN     1 APPLICATIONS
 ENVIRONM. OPT. : DAYL=    0.00  SRAD=    0.00  TMAX=    0.00  TMIN=    0.00
                  RAIN=    0.00  CO2 =    0.00  DEW =    0.00  WIND=    0.00
 SIMULATION OPT : WATER   :Y  NITROGEN:Y  N-FIX:N  PHOSPH :N  PESTS  :N
                  PHOTO   :C  ET      :R  INFIL:S  HYDROL :R  SOM    :G
                  CO2 418ppm  NSWIT   :1  EVAP :R  SOIL   :2  STEMP  :D
 MANAGEMENT OPT : PLANTING:R  IRRIG   :R  FERT :R  RESIDUE:R  HARVEST:M
                  WEATHER :M  TILLAGE :Y

*SUMMARY OF SOIL AND GENETIC INPUT PARAMETERS

   SOIL LOWER UPPER   SAT  EXTR  INIT   ROOT   BULK     pH    NO3    NH4    ORG
  DEPTH LIMIT LIMIT    SW    SW    SW   DIST   DENS                          C
   cm   cm3/cm3    cm3/cm3    cm3/cm3         g/cm3         ugN/g  ugN/g     %
-------------------------------------------------------------------------------
  0-  5 0.143 0.204 0.268 0.061 0.204   1.00   1.35   8.80  19.00  12.00   1.10
  5- 15 0.143 0.204 0.268 0.061 0.204   1.00   1.35   8.80  19.00  12.00   1.10
 15- 30 0.143 0.204 0.268 0.061 0.204   1.00   1.35   8.80  19.00  12.00   1.10
 30- 45 0.166 0.234 0.274 0.068 0.230   0.41   1.58   8.50  18.00  16.00   0.40
 45- 60 0.166 0.234 0.274 0.068 0.230   0.41   1.58   8.50  18.00  16.00   0.40
 60- 90 0.155 0.227 0.276 0.072 0.230   0.22   1.50   8.50  20.00  18.00   0.40
 90-120 0.188 0.263 0.308 0.075 0.263   0.12   1.38   8.00   0.01   0.01   0.40

TOT-120  19.6  27.8  33.8   8.3  27.8  <--cm   -  kg/ha-->  252.3  205.5  98070
SOIL ALBEDO    : 0.13      EVAPORATION LIMIT : 6.00         MIN. FACTOR  : 1.00
RUNOFF CURVE # :61.00      DRAINAGE RATE     : 0.60         FERT. FACTOR : 1.00

 Wheat            CULTIVAR: 589328-ENTRY 14           ECOTYPE: DFAULT
   P1V   P1D    P5    G1    G2    G3 PHINT
  17.9  79.1 620.9  20.1  47.5  8.00  41.5


*SIMULATED CROP AND SOIL STATUS AT MAIN DEVELOPMENT STAGES
  
 RUN NO.     70   ROOTS ANATOMY DROUGHT                                       

 ...... DATE ......  GROWTH STAGE BIOMASS   LEAF       CROP N      STRESS
 YEARDOY DOM MON DAP ............. kg/ha AREA NUMBER  kg/ha   %   H2O    N
 2022337   3 Dec   0 7 Sowing         0  0.00   0.0     0   0.0  0.00  0.00
 2022338   4 Dec   1 8 Germinate      0  0.00   0.0     0   0.0  0.00  0.00
 2022339   5 Dec   2 9 Emergence      0  0.00   0.0     0   0.0  0.00  0.00
 2023033   2 Feb  61 1 Term Spklt  1085  1.35  22.2    44   4.1  0.48  0.07
 2023047  16 Feb  75 2 End Veg     1426  1.57  26.3    45   3.2  0.69  0.00
 2023059  28 Feb  87 3 End Ear Gr  2001  1.06  26.3    44   2.2  0.58  0.00
 2023071  12 Mar  99 4 Beg Gr Fil  2417  0.71  26.3    44   1.8  0.71  0.00
 2023104  14 Apr 132 5 End Gr Fil  5128  0.16  26.3    70   1.4  0.26  0.00
 2023104  14 Apr 132 6 Harvest     5128  0.16  26.3    70   1.4  0.24  0.00
  

*MAIN GROWTH AND DEVELOPMENT VARIABLES

@     VARIABLE                             SIMULATED     MEASURED
      --------                             ---------     --------
      Emergence (DAP)                            2            6
      Anthesis (DAP)                            91           83
      Maturity (DAP)                           132          114
      Product wt (kg dm/ha;no loss)           1913         3107
      Product unit weight (g dm)             0.047        0.034
      Product number (no/m2)                  4027         9175
      Product number (no/group)               10.8        -99.0
      Product harvest index (ratio)           0.37         0.44
      Maximum leaf area index                  1.6          4.3
      Final leaf number (one axis)            26.3        -99.0
      Final shoot number (#/m2)                374          -99
      Canopy (tops) wt (kg dm/ha)             5128         7086
      Vegetative wt (kg dm/ha)                3215         3979
      Root wt (kg dm/ha)                       537          -99
      Assimilate wt (kg dm/ha)                6712          -99
      Senesced wt (kg dm/ha)                   730          -99
      Reserves wt (kg dm/ha)                  1842          -99
      N uptake (kg/ha)                        87.6        -99.0
      N senesced (kg/ha)                      10.3        -99.0
      Above-ground N (kg/ha)                  69.8        -99.0
      Root N (kg/ha)                           9.0        -99.0
      Vegetative N (kg/ha)                    10.7        -99.0
      Product N (kg/ha)                       59.1         59.1
      Product N harvest index (ratio)         0.85       -99.00
      Product N (%)                            3.1          1.9
      Vegetative N (%)                         0.3        -99.0
      Leaf+stem wt,anthesis (kg dm/ha)        2157          -99
      Leaf+stem N,anthesis (kg/ha)            43.8        -99.0
      Leaf N,anthesis (%)                      3.0        -99.0

*ENVIRONMENTAL AND STRESS FACTORS

 |-----Development Phase------|-------------Environment--------------|----------------Stress-----------------|
                              |--------Average-------|---Cumulative--|         (0=Min, 1=Max Stress)         |
                         Time  Temp  Temp Solar Photop         Evapo |----Water---|--Nitrogen--|--Phosphorus-|
                         Span   Max   Min   Rad  [day]   Rain  Trans  Photo         Photo         Photo
                         days    °C    °C MJ/m2     hr     mm     mm  synth Growth ' synth Growth  synth Growth
--------------------------------------------------------------------------------------------------------------
 Germinate  - Term Spklt   59  25.5   6.5  14.5  11.38   10.0   42.2  0.478  0.585  0.073  0.073 -99.00 -99.00
 Term Spklt - End Veg      14  25.6   6.0  16.0  11.85    3.6    9.6  0.685  0.758  0.000  0.000 -99.00 -99.00
 End Veg    - End Ear Gr   12  23.8   8.3  15.7  12.14    8.6   15.7  0.583  0.660  0.000  0.000 -99.00 -99.00
 End Ear Gr - Beg Gr Fil   12  27.7   6.6  20.1  12.45    0.1    6.0  0.714  0.780  0.000  0.000 -99.00 -99.00
 Beg Gr Fil - End Gr Fil   33  29.2   9.0  23.2  13.07   65.8   44.4  0.264  0.349  0.000  0.000 -99.00 -99.00
  
 Germinate  - End Gr Fil  130  26.5   7.2  17.5  12.03   88.1  118.0  0.477  0.569  0.033  0.033 -99.00 -99.00
--------------------------------------------------------------------------------------------------------------


*RESOURCE PRODUCTIVITY

 Growing season length: 130 days 

 Precipitation during growth season         88.1 mm[rain]
   Dry Matter Productivity                  5.82 kg[DM]/m3[rain]          =   58.2 kg[DM]/ha per mm[rain]
   Yield Productivity                       2.17 kg[grain yield]/m3[rain] =   21.7 kg[yield]/ha per mm[rain]

 Evapotranspiration during growth season   118.0 mm[ET]
   Dry Matter Productivity                  4.35 kg[DM]/m3[ET]            =   43.5 kg[DM]/ha per mm[ET]
   Yield Productivity                       1.62 kg[grain yield]/m3[ET]   =   16.2 kg[yield]/ha per mm[ET]

 Transpiration during growth season         84.0 mm[EP]
   Dry Matter Productivity                  6.11 kg[DM]/m3[EP]            =   61.1 kg[DM]/ha per mm[EP]
   Yield Productivity                       2.28 kg[grain yield]/m3[EP]   =   22.8 kg[yield]/ha per mm[EP]

 Irrigation during growing season          120.0 mm[irrig]
   Dry Matter Productivity                  4.27 kg[DM]/m3[irrig]         =   42.7 kg[DM]/ha per mm[irrig]
   Yield Productivity                       1.59 kg[grain yield]/m3[irrig]=   15.9 kg[yield]/ha per mm[irrig]

 N applied during growing season           173.0 kg[N applied]/ha
   Dry Matter Productivity                  29.6 kg[DM]/kg[N applied]
   Yield Productivity                       11.1 kg[yield]/kg[N applied]

 N uptake during growing season             87.6 kg[N uptake]/ha
   Dry Matter Productivity                  58.5 kg[DM]/kg[N uptake]
   Yield Productivity                       21.8 kg[yield]/kg[N uptake]

--------------------------------------------------------------------------------------------------------------

          WHEAT YIELD :     1913 kg/ha    [Dry weight] 

**************************************************************************************************************
