$GROWTH ASPECTS OUTPUT FILE

*DSSAT Cropping System Model Ver. 4.8.2.000 -release  JUL 05, 2025 22:16:38

*RUN   1        : WW23_G-1                  CSCER048 CIOB2301    1
 MODEL          : CSCER048 - Wheat
 EXPERIMENT     : CIOB2301 WH ROOTS ANATOMY
 DATA PATH      : C:\DSSAT48\Wheat\
 TREATMENT  1   : WW23_G-1                  CSCER048
  
@YEAR DOY   DAS   DAP TMEAN TKILL  GSTD  L#SD PARID PARUD  AWAD  LAID  SAID  CAID  TWAD SDWAD  RWAD  CWAD  LWAD  SWAD  HWAD  HIAD CHWAD  EWAD RSWAD SNWPD SNWLD SNWSD  RS%D  H#AD  HWUD  T#AD  SLAD  RDPD  PTFD  SWXD WAVRD WUPRD  WFTD  WFPD  WFGD  NFTD  NFPD  NFGD NUPRD  TFPD  TFGD VRNFD DYLFD
 2022 327    83     0  17.6  -6.0  0.00  0.00  0.00  0.00   0.0  0.00 0.000  0.00    43    43     0     0     0     0     0  0.00     0     0     0     0     0     0   0.0     0     0   150   -99  0.04  0.00  19.7  99.9  1.00  0.00  0.00  0.00  0.00  0.00  0.00   0.0  0.00  0.00  0.60  0.00
 2022 328    84     1  16.4  -6.0  5.84  0.00  0.00  0.00   0.0  0.00 0.000  0.00    43    43     0     0     0     0     0  0.00     0     0     0     0     0     0   0.0     0     0   150   -99  0.04  0.00   7.2  99.9  1.00  0.00  0.00  0.00  0.00  0.00  0.00   0.0  0.00  0.00  0.60  0.00
 2022 329    85     2  17.4  -6.0  8.40  0.00  0.00  0.00   0.0  0.00 0.000  0.00    43    41     1     0     0     0     0  0.00     0     0     0     0     0     0   0.0     0     0   150   -99  0.07  0.00   4.4  99.9  1.00  0.00  0.00  0.00  0.00  0.00  0.00   0.0  0.00  0.00  0.60  0.00
 2022 330    86     3  18.0  -6.0 10.00  0.00  0.00  0.00   0.0  0.00 0.000  0.00    43    40     3     0     0     0     0  0.00     0     0     0     0     0 .0012   0.0     0     0   150   -99  0.09  0.00   3.8  99.9  1.00  0.00  0.00  0.00  0.00  0.00  0.00   2.0  0.00  0.00  0.60  0.00
 2022 331    87     4  16.3  -6.0 11.08  1.08  0.03  0.00   0.0  0.03 0.003  0.04    43    26     4    13     9     4     0  0.00     0     0     0     0     0 .0034   0.0     0     0   150   400  0.12  0.75   3.9  99.9  1.00  0.00  0.00  0.00  0.00  0.00  0.00   0.1  0.00  0.00  0.60  0.71
 2022 332    88     5  16.1  -6.0 12.07  2.07  0.04  0.70   1.6  0.05 0.004  0.05    44    19     5    20    12     7     0  0.00     0     0     1     0 0.128 .0066   6.2     0     0   150   393  0.14  0.68   4.2  49.4  0.24  1.00  0.76  0.81  0.00  0.00  0.00   0.1  0.00  0.00  0.60  0.71
 2022 333    89     6  18.1  -6.0 12.67  2.67  0.05  0.43   1.4  0.06 0.005  0.06    45    14     7    24    15    10     0  0.00     0     0     2     0 0.312 .0113   9.7     0     0   150   391  0.17  0.68   5.7  45.6  0.22  1.00  0.78  0.83  0.32  0.32  0.32   0.2  0.00  0.00  0.60  0.71
 2022 334    90     7  18.5  -6.0 13.28  3.28  0.05  0.48   1.8  0.07 0.006  0.07    46    10     8    28    17    11     0  0.00     0     0     2     0 0.528 .0173   8.5     0     0   150   389  0.20  0.69   7.2  50.7  0.28  1.00  0.72  0.78  0.40  0.40  0.40   0.3  0.00  0.00  0.60  0.71
 2022 335    91     8  19.2  -6.0 13.91  3.91  0.06  0.49   2.1  0.07 0.006  0.08    48     9     9    30    18    12     0  0.00     0     0     2     0 0.779 .0250   8.0     0     0   150   387  0.23  0.69   8.9  52.4  0.31  1.00  0.69  0.76  0.45  0.45  0.45   0.7  0.00  0.00  0.60  0.72
 2022 336    92     9  23.0  -6.0 14.67  4.67  0.06  0.52   2.3  0.07 0.007  0.08    50     9     9    32    19    12     0  0.00     0     0     2     0 1.050 .0352   7.8     0     0   150   386  0.26  0.69  10.9  58.2  0.31  1.00  0.69  0.76  0.42  0.42  0.42   1.0  0.00  0.20  0.60  0.72
 2022 337    93    10  23.0  -6.0 15.43  5.43  0.05  0.60   2.6  0.05 0.005  0.06    47     9    10    29    14    14     0  0.00     0     0     7     0 5.910 .0459  24.9     0     0   150   384  0.29  0.70  12.9  72.3  0.33  1.00  0.67  0.74  0.37  0.37  0.37   1.2  0.00  0.20  0.60  0.72
 2022 338    94    11  22.0  -6.0 16.16  6.16  0.04  0.98   2.9  0.05 0.004  0.05    47     9    10    28    13    15     0  0.00     0     0     9     0 8.475 .0568  32.0     0     0   150   379  0.33  0.71  14.8  99.9  0.50  1.00  0.50  0.62  0.32  0.32  0.32   2.0  0.00  0.13  0.60  0.72
 2022 339    95    12  22.2  -6.0 16.89  6.89  0.04  2.14   2.3  0.04 0.004  0.05    47     9    11    28    11    16     0  0.00     0     0    10     0 10.69 .0683  37.5     0     0   232   374  0.36  0.74  17.0  99.9  1.49  0.00  0.00  0.00  0.26  0.26  0.26   2.0  0.00  0.15  0.60  0.72
 2022 340    96    13  19.7  -6.0 21.32  7.54  0.03  2.29   1.6  0.04 0.004  0.04    46     9    11    27    11    17     0  0.00     0     0    11     0 12.32 .0788  40.4     0     0   348   370  0.38  0.74  20.2  99.9  2.51  0.00  0.00  0.00  0.20  0.20  0.20   2.0  0.00  0.00  0.60  0.72
 2022 341    97    14  20.0  -6.0 22.14  8.20  0.03  2.40   2.5  0.04 0.004  0.04    47     9    11    27    10    17     0  0.00     0     0    11     0 13.86 .0897  41.6     0     0   472   364  0.40  0.75  20.8  99.9  1.76  0.00  0.00  0.00  0.17  0.17  0.17   2.0  0.00  0.00  0.60  0.73
 2022 342    98    15  20.8  -6.0 22.88  8.88  0.04  2.15   4.7  0.04 0.004  0.05    51     9    12    30    12    18     0  0.00     0     0    11     0 14.77 0.101  37.4     0     0   582   356  0.42  0.75  21.4  99.9  0.86  0.29  0.14  0.34  0.13  0.13  0.13   2.0  0.00  0.05  0.60  0.73
 2022 343    99    16  18.0  -6.0 23.36  9.48  0.04  2.01   5.5  0.05 0.005  0.06    55     9    13    33    15    19     0  0.00     0     0    11     0 15.59 0.112  33.0     0     0   654   350  0.44  0.74  22.5  99.9  0.77  0.46  0.23  0.41  0.09  0.09  0.09   1.0  0.00  0.00  0.60  0.73
 2022 344   100    17  17.0  -6.0 23.71 10.04  0.05  1.92   6.5  0.06 0.006  0.06    59     9    14    37    17    20     0  0.00     0     0    11     0 16.54 0.123  29.3     0     0   707   343  0.45  0.74  23.5  99.9  0.71  0.58  0.29  0.45  0.06  0.06  0.06   1.0  0.00  0.00  0.60  0.73
 2022 345   101    18  16.2  -6.0 24.09 10.58  0.06  2.00   7.5  0.07 0.007  0.08    65     9    15    42    20    22     0  0.00     0     0    11     0 17.48 0.134  26.0     0     0   763   337  0.47  0.74  24.5  99.9  0.73  0.53  0.27  0.44  0.05  0.05  0.05   1.0  0.00  0.00  0.60  0.73
 2022 346   102    19  16.1  -6.0 24.44 11.11  0.06  1.99   8.7  0.08 0.008  0.09    72     9    16    47    24    23     0  0.00     0     0    11     0 18.44 0.146  22.9     0     0   816   332  0.48  0.74  25.4  99.9  0.72  0.56  0.28  0.44  0.04  0.04  0.04   0.9  0.00  0.00  0.60  0.73
 2022 347   103    20  15.1  -6.0 24.85 11.61  0.08  2.13  10.2  0.09 0.010  0.10    80     9    18    54    28    26     0  0.00     0     0    11     0 19.40 0.159  20.1     0     0   878   327  0.50  0.75  73.0  99.9  0.78  0.45  0.22  0.40  0.04  0.04  0.04   0.8  0.00  0.00  0.60  0.73
 2022 348   104    21  15.2  -6.0 25.55 12.11  0.09  2.68  16.0  0.11 0.013  0.13    94     9    20    65    35    30     0  0.00     0     0    11     0 20.39 0.172  16.8     0     0   983   322  0.51  0.76  56.1  99.9  2.31  0.00  0.00  0.00  0.07  0.07  0.07   1.3  0.00  0.00  0.60  0.73
 2022 349   105    22  14.6  -6.0 26.25 12.59  0.11  2.74  19.5  0.14 0.015  0.15   110     9    23    78    44    35     0  0.00     0     0    12     0 21.97 0.187  14.9     0     0  1087   316  0.53  0.76  40.7  99.9  2.28  0.00  0.00  0.00  0.05  0.05  0.05   1.1  0.00  0.00  0.60  0.73
 2022 350   106    23  12.5  -6.0 26.84 13.01  0.12  2.78  13.2  0.15 0.017  0.17   120     9    25    87    49    38     0  0.00     0     0    12     0 23.33 0.201  13.8     0     0  1177   313  0.54  0.77  34.5  99.9  2.80  0.00  0.00  0.00  0.03  0.03  0.03   1.4  0.00  0.00  0.56  0.73
 2022 351   107    24  14.9  -6.0 27.56 13.50  0.14  2.80  25.2  0.18 0.021  0.20   141     9    28   104    59    45     0  0.00     0     0    14     0 25.72 0.220  13.0     0     0  1285   308  0.55  0.77  32.5  99.9  1.49  0.00  0.00  0.00  0.03  0.03  0.03   0.6  0.00  0.00  0.56  0.73
 2022 352   108    25  15.5  -6.0 28.25 14.01  0.17  2.58  27.3  0.21 0.025  0.24   163     9    32   122    70    52     0  0.00     0     0    15     0 28.23 0.242  12.3     0     0  1388   304  0.57  0.76  33.0  86.6  1.37  0.00  0.00  0.00  0.10  0.10  0.10   0.7  0.00  0.00  0.56  0.73
 2022 353   109    26  14.8  -6.0 28.89 14.50  0.19  2.51  31.1  0.25 0.029  0.27   188     9    37   143    82    61     0  0.00     0     0    17     0 31.34 0.266  12.0     0     0  1483   300  0.58  0.76  33.4  75.9  1.28  0.00  0.00  0.02  0.13  0.13  0.13   0.7  0.00  0.00  0.56  0.74
 2022 354   110    27  16.6  -6.0 29.59 15.05  0.21  2.45  31.5  0.28 0.033  0.31   213     9    41   163    93    70     0  0.00     0     0    19     0 34.89 0.296  11.9     0     0  1588   297  0.60  0.76  34.0  71.9  1.29  0.00  0.00  0.00  0.15  0.15  0.15   0.9  0.00  0.00  0.56  0.74
 2022 355   111    28  15.2  -6.0 30.00 15.55  0.23  2.47  39.7  0.31 0.038  0.35   244     9    47   188   107    81     0  0.00     0     0    23     0 39.95 0.327  12.3     0     0  1686   292  0.61  0.76  34.3  59.6  1.14  0.00  0.00  0.12  0.14  0.14  0.14   0.8  0.00  0.00  0.56  0.74
 2022 356   112    29  15.3  -6.0 30.00 16.06  0.26  2.44  44.1  0.36 0.044  0.40   278     9    53   216   123    93     0  0.00     0     0    27     0 45.13 0.363  12.3     0     0  1782   289  0.63  0.76  34.6  53.1  1.11  0.00  0.00  0.15  0.15  0.15  0.15   0.8  0.00  0.00  0.56  0.74
 2022 357   113    30  15.9  -6.0 30.00 16.58  0.28  2.44  48.7  0.39 0.049  0.44   314     9    60   245   138   108     0  0.00     0     0    33     0 52.92 0.406  13.3     0     0  1883   284  0.64  0.76  34.7  47.7  1.07  0.00  0.00  0.17  0.15  0.15  0.15   0.8  0.00  0.00  0.56  0.74
 2022 358   114    31  16.2  -6.0 30.00 17.09  0.31  2.44  53.2  0.43 0.056  0.49   354     9    68   278   155   123     0  0.00     0     0    38     0 60.98 0.455  13.7     0     0  1985   281  0.65  0.76  34.8  43.6  1.02  0.00  0.00  0.22  0.15  0.15  0.15   0.9  0.00  0.00  0.56  0.74
 2022 359   115    32  17.8  -6.0 30.00 17.54  0.33  2.29  54.7  0.47 0.062  0.54   394     9    76   310   171   139     0  0.00     0     0    44     0 70.25 0.516  14.4     0     0  2071   277  0.67  0.76  35.0  38.5  0.92  0.16  0.08  0.29  0.14  0.14  0.14   0.9  0.00  0.00  0.58  0.74
 2022 360   116    33  17.0  -6.0 30.00 17.97  0.36  2.20  57.3  0.52 0.068  0.59   437     9    84   345   190   155     0  0.00     0     0    50     0 79.25 0.580  14.5     0     0  2143   274  0.68  0.76  35.2  36.1  0.87  0.26  0.13  0.33  0.12  0.12  0.12   1.0  0.00  0.00  0.58  0.73
 2022 361   117    34  17.5  -6.0 30.00 18.42  0.39  2.10  58.2  0.59 0.078  0.67   487     9    93   386   217   168     0  0.00     0     0    49     0 82.13 0.654  12.7     0     0  2205   271  0.70  0.76  35.3  33.8  0.81  0.37  0.19  0.37  0.10  0.10  0.10   1.0  0.00  0.00  0.60  0.73
 2022 362   118    35  16.6  -6.0 30.00 18.84  0.41  2.64  50.4  0.62 0.083  0.71   522     9   100   414   232   183     0  0.00     0     0    55     0 92.20 0.731  13.2     0     0  2293   269  0.71  0.77  35.6  51.3  1.23  0.00  0.00  0.06  0.08  0.08  0.08   0.9  0.00  0.00  0.60  0.73
 2022 363   119    36  17.2  -6.0 30.00 19.28  0.41  2.66  22.9  0.62 0.084  0.70   532     9   103   421   232   189     0  0.00     0     0    60     0 102.7 0.816  14.3     0     0  2384   267  0.72  0.77  36.5  99.9  2.75  0.00  0.00  0.00  0.07  0.07  0.07   2.0  0.00  0.00  0.60  0.73
 2022 364   120    37  18.6  -6.0 30.00 19.75  0.42  2.01  60.1  0.64 0.089  0.73   572     9   112   451   244   207     0  0.00     0     0    70     0 117.6 0.912  15.5     0     0  2436   264  0.74  0.75  36.8  32.3  0.75  0.51  0.25  0.43  0.06  0.06  0.06   1.1  0.00  0.00  0.60  0.73
 2022 365   121    38  17.8  -6.0 30.00 20.20  0.44  1.91  61.6  0.67 0.094  0.77   612     9   121   483   259   224     0  0.00     0     0    79     0 132.1 1.011  16.3     0     0  2476   261  0.75  0.75  37.0  30.4  0.70  0.60  0.30  0.46  0.05  0.05  0.05   1.4  0.00  0.00  0.60  0.73
 2023   1   122    39  16.6  -6.0 30.00 20.62  0.45  2.24  65.5  0.70 0.100  0.80   656     9   130   517   274   243     0  0.00     0     0    88     0 148.0 1.112  17.0     0     0  2536   257  0.77  0.76  37.2  35.2  0.81  0.38  0.19  0.38  0.04  0.04  0.04   1.3  0.00  0.00  0.60  0.73
 2023   2   123    40  15.1  -6.0 30.00 21.01  0.47  2.78  68.9  0.74 0.107  0.85   703     9   140   555   293   262     0  0.00     0     0    95     0 162.7 1.210  17.1     0     0  2620   254  0.78  0.77  37.2  43.0  1.00  0.00  0.00  0.23  0.03  0.03  0.03   1.3  0.00  0.00  0.60  0.73
 2023   3   124    41  13.8  -6.0 30.00 21.36  0.48  2.01  71.3  0.78 0.113  0.89   750     9   150   591   310   281     0  0.00     0     0   104     0 180.0 1.306  17.6     0     0  2654   250  0.79  0.75  78.9  64.9  0.72  0.57  0.28  0.45  0.02  0.02  0.02   1.2  0.00  0.00  0.58  0.73
 2023   4   125    42  16.3  -6.0 30.00 21.77  0.51  2.82 106.3  0.84 0.125  0.96   826     9   164   653   341   312     0  0.00     0     0   117     0 200.9 1.429  17.9     0     0  2745   246  0.80  0.78  62.2  43.3  3.07  0.00  0.00  0.00  0.02  0.02  0.02   1.9  0.00  0.00  0.58  0.73
 2023   5   126    43  17.6  -6.0 30.00 22.22  0.54  2.84 116.4  0.91 0.137  1.04   909     9   180   721   374   346     0  0.00     0     0   130     0 223.8 1.574  18.1     0     0  2845   242  0.82  0.78  54.7  34.6  3.06  0.00  0.00  0.00  0.01  0.01  0.01   2.0  0.00  0.00  0.59  0.73
 2023   6   127    44  18.3  -6.0 30.00 22.68  0.57  2.85 121.1  0.98 0.151  1.13   997     9   196   793   412   380     0  0.00     0     0   142     0 246.0 1.738  17.9     0     0  2949   238  0.83  0.78  51.6  31.8  2.66  0.00  0.00  0.00  0.01  0.01  0.01   1.8  0.00  0.00  0.59  0.73
 2023   7   128    45  17.7  -6.0 30.00 23.13  0.59  2.86 123.9  1.06 0.166  1.23  1088     9   212   867   453   415     0  0.00     0     0   152     0 267.7 1.911  17.5     0     0  3000   235  0.85  0.78  50.2  30.9  2.49  0.00  0.00  0.00  0.00  0.00  0.00   1.5  0.00  0.00  0.59  0.72
 2023   8   129    46  17.3  -6.0 30.00 23.57  0.63  2.87 130.7  1.15 0.184  1.34  1187     9   229   949   500   449     0  0.00     0     0   160     0 287.7 2.095  16.8     0     0  3000   231  0.86  0.78  49.4  29.1  2.23  0.00  0.00  0.00  0.00  0.00  0.00   1.4  0.00  0.00  0.59  0.72
 2023   9   130    47  16.6  -6.0 30.00 24.00  0.66  2.88 143.8  1.26 0.204  1.47  1298     9   248  1042   555   487     0  0.00     0     0   166     0 307.2 2.285  15.9     0     0  3000   228  0.88  0.78  48.5  26.2  1.86  0.00  0.00  0.00  0.00  0.00  0.00   1.2  0.00  0.00  0.59  0.72
 2023  10   131    48  17.2  -6.0 30.00 24.43  0.69  2.88 146.7  1.39 0.227  1.62  1418     9   267  1142   619   524     0  0.00     0     0   167     0 321.5 2.498  14.6     0     0  3000   225  0.89  0.78  47.6  24.9  1.65  0.00  0.00  0.00  0.00  0.00  0.00   1.1  0.00  0.00  0.59  0.72
 2023  11   132    49  17.9  -6.0 30.00 24.89  0.72  2.88 162.6  1.48 0.245  1.72  1534     9   288  1238   666   571     0  0.00     0     0   185     0 352.9 2.737  15.0     0     0  3000   222  0.91  0.78  46.4  21.6  1.37  0.00  0.00  0.00  0.00  0.00  0.00   0.9  0.00  0.00  0.60  0.72
 2023  12   133    50  18.4  -6.0 30.00 25.35  0.74  2.85 167.3  1.57 0.263  1.83  1654     9   310  1336   716   620     0  0.00     0     0   203     0 385.7 3.002  15.2     0     0  3000   219  0.92  0.78  45.1  20.2  1.26  0.00  0.00  0.03  0.01  0.01  0.01   1.1  0.00  0.00  0.60  0.72
 2023  13   134    51  16.6  -6.0 30.00 25.78  0.75  2.86 170.8  1.63 0.279  1.91  1768     9   332  1428   756   671     0  0.00     0     0   228     0 427.3 3.260  16.0     0     0  3000   216  0.93  0.78  43.9  19.7  1.17  0.00  0.00  0.10  0.00  0.00  0.00   1.1  0.00  0.00  0.60  0.71
 2023  14   135    52  17.6  -6.0 30.00 26.22  0.76  2.87 172.3  1.69 0.294  1.99  1880     9   354  1518   794   723     0  0.00     0     0   254     0 472.1 3.553  16.8     0     0  3000   213  0.95  0.78  42.6  18.7  1.01  0.00  0.00  0.22  0.00  0.00  0.00   1.2  0.00  0.00  0.60  0.71
 2023  15   136    53  16.9  -6.0 30.00 26.65  0.76  2.88 120.6  1.70 0.299  2.00  1942     9   369  1564   805   759     0  0.00     0     0   280     0 519.9 3.851  17.9     0     0  3000   211  0.96  0.78  42.1  27.5  1.32  0.00  0.00  0.00  0.00  0.00  0.00   2.0  0.00  0.00  0.60  0.71
 2023  16   137    54  17.0  -6.0 30.00 27.08  0.77  2.39 146.0  1.73 0.308  2.04  2026     9   389  1628   827   800     0  0.00     0     0   303     0 568.4 4.164  18.6     0     0  3000   209  0.98  0.77  41.3  18.5  0.83  0.34  0.17  0.36  0.00  0.00  0.00   1.8  0.00  0.00  0.60  0.71
 2023  17   138    55  14.1  -6.0 30.00 27.44  0.76  2.88  53.1  1.68 0.303  1.99  2027     9   396  1623   810   813     0  0.00     0     0   321     0 615.0 4.439  19.8     0     0  3000   208  0.99  0.78  41.7  66.2  2.66  0.00  0.00  0.00  0.00  0.00  0.00   2.0  0.00  0.00  0.59  0.71
 2023  18   139    56  13.8  -6.0 30.00 27.79  0.77  2.32 135.8  1.72 0.313  2.03  2104     9   415  1681   834   847     0  0.00     0     0   338     0 660.8 4.712  20.1     0     0  3000   206  1.00  0.77  41.0  20.4  0.81  0.39  0.19  0.38  0.00  0.00  0.00   2.0  0.00  0.00  0.57  0.70
 2023  19   140    57  14.2  -6.0 30.00 28.15  0.77  2.10 123.7  1.74 0.320  2.06  2168     9   433  1727   850   877     0  0.00     0     0   355     0 708.5 5.008  20.5     0     0  3000   205  1.01  0.76  40.4  19.7  0.73  0.54  0.27  0.44  0.00  0.00  0.00   2.0  0.00  0.00  0.56  0.70
 2023  20   141    58  13.8  -6.0 30.00 28.50  0.78  1.76 116.0  1.76 0.325  2.08  2224     9   450  1766   862   904     0  0.00     0     0   370     0 756.4 5.305  21.0     0     0  3000   204  1.02  0.75  95.9  41.9  0.61  0.78  0.39  0.53  0.00  0.00  0.00   2.0  0.00  0.00  0.55  0.70
 2023  21   142    59  14.1  -6.0 30.00 28.86  0.79  2.88 191.8  1.85 0.345  2.19  2350     9   474  1867   913   955     0  0.00     0     0   387     0 805.8 5.622  20.7     0     0  3000   202  1.03  0.79  80.0  34.4  5.69  0.00  0.00  0.00  0.00  0.00  0.00   2.0  0.00  0.00  0.53  0.70
 2023  22   143    60  14.1  -6.0 30.00 29.22  0.81  2.88 200.4  1.95 0.366  2.31  2483     9   500  1975   969  1007     0  0.00     0     0   403     0 855.4 5.955  20.4     0     0  3000   201  1.05  0.79  72.2  29.6  5.72  0.00  0.00  0.00  0.00  0.00  0.00   2.0  0.00  0.00  0.52  0.70
 2023  23   144    61  12.6  -6.0 30.00 29.53  0.82  2.88 173.3  2.03 0.384  2.41  2593     9   521  2063  1014  1049     0  0.00     0     0   416     0 903.6 6.269  20.2     0     0  3000   200  1.06  0.79  70.2  34.8  6.97  0.00  0.00  0.00  0.00  0.00  0.00   2.0  0.00  0.00  0.49  0.69
 2023  24   145    62  13.1  -6.0 30.00 29.87  0.84  2.88 209.1  2.14 0.407  2.55  2734     9   548  2177  1075  1103     0  0.00     0     0   430     0 954.2 6.610  19.8     0     0  3000   199  1.07  0.79  68.0  27.7  5.33  0.00  0.00  0.00  0.00  0.00  0.00   2.0  0.00  0.00  0.46  0.69
 2023  25   146    63  14.5  -6.0 30.00 30.24  0.85  2.88 214.4  2.24 0.429  2.67  2873     9   575  2290  1131  1159     0  0.00     0     0   449     0  1011 7.007  19.6     0     0  3000   198  1.08  0.79  65.7  25.0  4.63  0.00  0.00  0.00  0.00  0.00  0.00   2.0  0.00  0.00  0.46  0.69
 2023  26   147    64  15.7  -6.0 30.00 30.63  0.86  2.88 200.8  2.34 0.449  2.78  3000     9   600  2392  1182  1210     0  0.00     0     0   466     0  1067 7.457  19.5     0     0  3000   198  1.09  0.79  63.7  25.4  4.45  0.00  0.00  0.00  0.00  0.00  0.00   2.0  0.00  0.00  0.46  0.69
 2023  27   148    65  12.1  -6.0 30.00 30.94  0.87  2.88 162.5  2.43 0.468  2.90  3105     9   620  2476  1233  1243     0  0.00     0     0   468     0  1111 7.821  18.9     0     0  3000   197  1.10  0.79  62.2  32.6  5.32  0.00  0.00  0.00  0.00  0.00  0.00   2.0  0.00  0.00  0.42  0.68
 2023  28   149    66  15.6  -6.0 30.00 31.34  0.88  2.88 183.3  2.51 0.486  2.99  3216     9   642  2565  1276  1288     0  0.00     0     0   483     0  1167 8.304  18.8     0     0  3000   196  1.11  0.79  60.5  26.0  3.86  0.00  0.00  0.00  0.00  0.00  0.00   2.0  0.00  0.00  0.42  0.68
 2023  29   150    67  14.4  -6.0 30.00 31.70  0.89  2.88 224.3  2.64 0.513  3.15  3370     9   670  2691  1349  1343     0  0.00     0     0   492     0  1218 8.769  18.3     0     0  3000   196  1.13  0.79  58.2  20.9  2.79  0.00  0.00  0.00  0.00  0.00  0.00   2.0  0.00  0.00  0.41  0.68
 2023  30   151    68  14.6  -6.0 30.00 32.07  0.90  2.88 203.1  2.76 0.537  3.29  3504     9   695  2801  1410  1390     0  0.00     0     0   500     0  1269 9.256  17.9     0     0  3000   195  1.14  0.79  56.5  22.3  2.59  0.00  0.00  0.00  0.00  0.00  0.00   2.0  0.00  0.00  0.40  0.67
 2023  31   152    69  14.5  -6.0 30.00 32.44  0.91  2.88 210.5  2.82 0.552  3.37  3624     9   721  2895  1447  1448     0  0.00     0     0   529     0  1342 9.760  18.3     0     0  3000   195  1.15  0.79  54.7  20.8  2.16  0.00  0.00  0.00  0.00  0.00  0.00   1.8  0.00  0.00  0.40  0.67
 2023  32   153    70  13.4  -6.0 30.00 32.78  0.91  2.88 158.2  2.86 0.562  3.42  3702     9   740  2954  1468  1485     0  0.00     0     0   547     0  1408 10.24  18.5     0     0  3000   195  1.16  0.79  53.6  28.1  2.59  0.00  0.00  0.00  0.00  0.00  0.00   2.0  0.00  0.00  0.38  0.67
 2023  33   154    71  15.9  -6.0 30.00 33.18  0.92  2.88 217.6  2.92 0.576  3.49  3822     9   766  3047  1501  1545     0  0.00     0     0   579     0  1488 10.83  19.0     0     0  3000   194  1.17  0.79  51.7  18.5  1.60  0.00  0.00  0.00  0.00  0.00  0.00   2.0  0.00  0.00  0.38  0.67
 2023  34   155    72  16.9  -6.0 30.00 33.61  0.91  2.88 217.3  2.89 0.577  3.47  3909     9   793  3108  1492  1616     0  0.00     0     0   639     0  1599 11.47  20.6     0     0  3000   194  1.19  0.79  95.5  33.1  1.34  0.00  0.00  0.00  0.00  0.00  0.00   2.0  0.00  0.00  0.38  0.66
 2023  35   156    73  16.9  -6.0 30.00 34.04  0.91  2.88 224.8  2.88 0.580  3.46  4003     9   820  3175  1490  1685     0  0.00     0     0   694     0  1711 12.14  21.9     0     0  3000   193  1.20  0.79  88.4  29.5  6.57  0.00  0.00  0.00  0.00  0.00  0.00   2.0  0.00  0.00  0.38  0.66
 2023  36   157    74  18.1  -6.0 30.00 34.50  0.91  2.88 224.6  2.87 0.582  3.45  4093     9   846  3238  1486  1752     0  0.00     0     0   748     0  1826 12.89  23.1     0     0  3000   193  1.22  0.80  83.5  27.3  7.89  0.00  0.00  0.00  0.00  0.00  0.00   2.0  0.00  0.00  0.38  0.66
 2023  37   158    75  16.7  -6.0 30.00 34.92  0.91  2.88 215.2  2.88 0.589  3.47  4184     9   872  3303  1494  1810     0  0.00     0     0   787     0  1933 13.59  23.8     0     0  3000   193  1.22  0.80  80.6  28.7  8.86  0.00  0.00  0.00  0.00  0.00  0.00   2.0  0.00  0.00  0.38  0.65
 2023  38   159    76  16.2  -6.0 30.00 35.34  0.92  2.88 233.7  2.97 0.610  3.58  4315     9   900  3407  1546  1861     0  0.00     0     0   799     0  2016 14.30  23.4     0     0  3000   192  1.22  0.80  77.4  25.8  8.02  0.00  0.00  0.00  0.00  0.00  0.00   2.0  0.00  0.00  0.38  0.65
 2023  39   160    77  18.1  -6.0 30.00 35.80  0.92  2.88 242.1  2.99 0.618  3.61  4421     9   928  3484  1556  1928     0  0.00     0     0   843     0  2132 15.12  24.2     0     0  3000   192  1.22  0.80  73.8  22.6  6.62  0.00  0.00  0.00  0.00  0.00  0.00   2.0  0.00  0.00  0.38  0.65
 2023  40   161    78  15.1  -6.0 30.00 36.18  0.93  2.88 245.0  3.06 0.637  3.70  4549     9   957  3583  1598  1985     0  0.00     0     0   865     0  2229 15.82  24.1     0     0  3000   192  1.22  0.80  70.5  22.5  5.80  0.00  0.00  0.00  0.00  0.00  0.00   2.0  0.00  0.00  0.38  0.64
 2023  41   162    79  17.1  -6.0 30.00 36.62  0.94  2.88 217.0  3.36 0.692  4.05  4741     9   982  3751  1755  1996     0  0.00     0     0   792     0  2235 16.64  21.1     0     0  3000   191  1.22  0.80  67.4  23.3  5.15  0.00  0.00  0.00  0.00  0.00  0.00   2.0  0.00  0.00  0.00  0.00
 2023  42   163    80  14.0  -6.0 30.00 36.97  0.95  2.88  80.0  3.52 0.721  4.24  4806     9   991  3807  1842  1965     0  0.00     0     0   724     0  2243 17.33  19.0     0     0  3000   191  1.22  0.80  66.4  67.1 12.63  0.00  0.00  0.00  0.00  0.00  0.00   2.0  0.00  0.00  0.00  0.00
 2023  43   164    81  15.7  -6.0 30.00 37.37  0.96  2.88 226.6  3.79 0.774  4.56  5006     9  1016  3981  1991  1991     0  0.00     0     0   672     0  2252 18.10  16.9     0     0  3000   190  1.22  0.81  63.3  21.6  4.02  0.00  0.00  0.00  0.00  0.00  0.00   2.0  0.00  0.00  0.00  0.00
 2023  44   165    82  13.9  -6.0 30.42 37.72  0.97  2.88 154.6  3.98 0.813  4.80  5140     9  1033  4099  2103  1995     0  0.00     0     0   621     0  2259 18.81  15.1     0     0  3000   189  1.22  0.81  61.3  32.0  5.18  0.00  0.00  0.00  0.00  0.00  0.00   2.0  0.00  0.00  0.00  0.00
 2023  45   166    83  13.7  -6.0 31.33 38.07  0.97  2.88 232.0  4.24 0.865  5.10  5346     9  1058  4280  2244  2035     0  0.00     0     0   581     0  2267 19.52  13.6     0     0  3000   189  1.22  0.81  58.3  19.9  3.04  0.00  0.00  0.00  0.00  0.00  0.00   2.0  0.00  0.00  0.00  0.00
 2023  46   167    84  14.2  -6.0 32.28 38.43  0.98  2.88 240.6  4.48 0.917  5.40  5561     9  1084  4468  2383  2085     0  0.00     0     0   547     0  2275 20.27  12.2     0     0  3000   188  1.22  0.82  57.7  18.9  2.47  0.00  0.00  0.00  0.00  0.00  0.00   2.0  0.00  0.00  0.00  0.00
 2023  47   168    85  14.1  -6.0 33.22 38.79  0.98  2.88 267.2  4.74 0.973  5.71  5800     9  1112  4680  2529  2151     0  0.00     0     0   520     0  2283 21.03  11.1     0     0  3000   187  1.22  0.82  54.3  16.0  2.73  0.00  0.00  0.00  0.00  0.00  0.00   1.9  0.00  0.00  0.00  0.00
 2023  48   169    86  12.8  -6.0 34.07 39.11  0.98  2.88 193.5  4.93 1.015  5.95  5972     9  1131  4832  2641  2190     0  0.00     0     0   491     0  2291 21.74  10.2     0     0  3000   187  1.22  0.82  98.6  40.6  2.66  0.00  0.00  0.00  0.00  0.00  0.00   2.0  0.00  0.00  0.00  0.00
 2023  49   170    87  17.4  -6.0 35.23 39.56  0.99  2.88 172.8  5.07 1.052  6.12  6122     9  1148  4965  2738  2227     0  0.00     0     0   467     0  2301 22.73   9.4     0     0  2912   185  1.22  0.83 104.6  44.3 13.00  0.00  0.00  0.00  0.00  0.00  0.00   2.0  0.00  0.00  0.00  0.00
 2023  50   171    88  18.8  -6.0 36.49 40.03  0.99  2.88 151.8  5.18 1.085  6.26  6251     9  1162  5080  2824  2257     0  0.00     0     0   446     0  2311 23.81   8.8     0     0  2820   183  1.22  0.83  90.9  42.5 15.00  0.00  0.00  0.00  0.00  0.00  0.00   2.0  0.00  0.00  0.00  0.00
 2023  51   172    89  18.3  -6.0 37.71 40.50  0.99  2.88 187.5  5.30 1.123  6.42  6415     9  1180  5227  2920  2307     0  0.00     0     0   431     0  2322 24.87   8.2     0     0  2734   181  1.22  0.84  84.4  32.1 13.01  0.00  0.00  0.00  0.00  0.00  0.00   2.0  0.00  0.00  0.00  0.00
 2023  52   173    90  16.3  -6.0 38.79 40.91  0.99  2.88 173.5  5.41 1.158  6.57  6567     9  1195  5363  3009  2355     0  0.00     0     0   417     0  2331 25.83   7.8     0     0  2660   180  1.22  0.84  82.4  35.7 15.00  0.00  0.00  0.00  0.00  0.00  0.00   2.0  0.00  0.00  0.00  0.00
 2023  53   174    91  15.3  -6.0 39.82 41.30  0.99  2.88 286.1  5.58 1.213  6.80  6826     9  1221  5596  3130  2466     0  0.00     0     0   419     0  2340 26.75   7.5     0     0  2592   178  1.22  0.85  78.6  21.0  9.40  0.00  0.00  0.00  0.00  0.00  0.00   2.0  0.00  0.00  0.00  0.00
 2023  54   175    92  16.1  -6.0 40.67 41.71  0.99  2.88 287.9  5.75 1.268  7.02  7086     9  1246  5831  3247  2584     0  0.00     0     0   424     0  2350 27.74   7.3     0     0  2522   177  1.22  0.85  74.7  19.2  8.84  0.00  0.00  0.00  0.00  0.00  0.00   2.0  0.00  0.00  0.00  0.00
 2023  55   176    93  13.1  -6.0 41.33 41.71  0.99  2.88 185.5  5.69 1.289  6.97  7260     9  1261  5990  3238  2738     0  0.00     0     0   486    14  2350 28.56   8.1     0     0  2468   176  1.22  0.85  72.4  30.7 11.91  0.00  0.00  0.00  0.00  0.00  0.00   2.0  0.00  0.00  0.00  0.00
 2023  56   177    94  15.6  -6.0 42.11 41.71  0.99  2.88 182.6  5.61 1.309  6.92  7431     9  1276  6146  3222  2893     0  0.00     0     0   550    32  2350 29.54   9.0     0     0  2404   174  1.22  0.86  69.9  28.6 10.01  0.00  0.00  0.00  0.00  0.00  0.00   2.0  0.00  0.00  0.00  0.00
 2023  57   178    95  17.0  -6.0 42.96 41.71  0.99  2.88 296.6  5.53 1.345  6.88  7710     9  1300  6401  3205  3146     0  0.00     0     0   645    51  2350 30.62  10.2     0     0  2338   173  1.22  0.86  65.9  16.2  5.17  0.00  0.00  0.00  0.00  0.00  0.00   2.0  0.00  0.00  0.00  0.00
 2023  58   179    96  16.0  -6.0 43.76 41.71  0.99  2.88 296.4  5.46 1.381  6.84  7989     9  1323  6658  3190  3399     0  0.00     0     0   740    69  2350 31.66  11.2     0     0  2277   171  1.22  0.86  61.9  15.4  4.07  0.00  0.00  0.00  0.00  0.00  0.00   2.0  0.00  0.00  0.00  0.00
 2023  59   180    97  16.1  -6.0 44.56 41.71  0.99  2.88 262.0  5.38 1.413  6.79  8236     9  1343  6885  3175  3624     0  0.00     0     0   826    87  2350 32.73  12.2     0     0  2218   170  1.22  0.87  58.3  16.3  3.58  0.00  0.00  0.00  0.00  0.00  0.00   2.0  0.00  0.00  0.00  0.00
 2023  60   181    98  12.6  -6.0 45.20 41.71  0.99  2.88  89.7  5.32 1.420  6.74  8321     9  1349  6964  3165  3698     0  0.00     0     0   864   101  2350 33.58  12.6     0     0  2173   168  1.22  0.87  57.2  51.5  9.29  0.00  0.00  0.00  0.00  0.00  0.00   2.0  0.00  0.00  0.00  0.00
 2023  61   182    99  14.6  -6.0 45.93 41.71  0.99  2.88 307.2  5.26 1.459  6.72  8612     9  1370  7233  3148  3967     0  0.00     0     0   962   118  2350 34.57  13.5     0     0  2122   167  1.21  0.88  53.2  13.4  2.43  0.00  0.00  0.00  0.00  0.00  0.00   2.0  0.00  0.00  0.00  0.00
 2023  62   183   100  14.9  -6.0 46.67 41.71  0.99  2.88 314.1  5.19 1.500  6.69  8910     9  1392  7509  3133  4241     0  0.00     0     0  1061   135  2350 35.59  14.4     0     0  2071   166  1.21  0.88  49.1  11.9  1.84  0.00  0.00  0.00  0.00  0.00  0.00   2.0  0.00  0.00  0.00  0.00
 2023  63   184   101  14.5  -6.0 47.40 41.71  0.99  2.88 315.3  5.12 1.541  6.66  9209     9  1413  7788  3118  4518     0  0.00     0     0  1162   151  2350 36.59  15.2     0     0  2024   164  1.21  0.88  44.9  10.8  1.42  0.00  0.00  0.00  0.00  0.00  0.00   2.0  0.00  0.00  0.00  0.00
 2023  64   185   102  15.5  -6.0 48.17 41.71  0.99  2.88 319.4  5.05 1.582  6.64  9513     9  1434  8071  3101  4801     0  0.00     0     0  1264   169  2350 37.69  16.0     0     0  1975   163  1.21  0.89  40.6   9.4  1.06  0.00  0.00  0.18  0.00  0.00  0.00   2.0  0.00  0.00  0.00  0.00
 2023  65   186   103  16.9  -6.0 49.02 41.71  0.99  2.38 254.6  4.98 1.612  6.59  9754     9  1452  8293  3082  4922     0  0.00   101   101  1351   189  2350 38.90  16.7     0     0  1923   162  1.21  0.87  37.1   8.7  0.83  0.35  0.17  0.36  0.00  0.00  0.00   2.0  0.00  0.00  0.00  0.00
 2023  66   187   104  16.9  -6.0 49.86 41.71  0.98  2.47 206.0  4.90 1.635  6.54  9949     9  1465  8475  3063  4990     0  0.00   214   184  1425   208  2350 40.12  17.2     0     0  1873   160  1.21  0.88  86.7  26.2  0.86  0.28  0.14  0.34  0.00  0.00  0.00   2.0  0.00  0.00  0.00  0.00
 2023  67   188   105  18.4  -6.0 53.11 41.71  0.98  2.88 280.3  4.82 1.669  6.49 10216     9  1481  8727  3041  5101     0  0.00   355   298  1522   230  2350 41.47  17.9     0     0  1820   159  1.21  0.90  82.7  20.8  6.42  0.00  0.00  0.00  0.00  0.00  0.00   2.0  0.00  0.00  0.00  0.00
 2023  68   189   106  19.7  -6.0 57.05 41.71  0.98  2.88 305.5  4.75 1.700  6.45 10510     9  1495  9006  3023  5213     0  0.00   520   426  1625   249  2350 42.93  18.6     0     0  1765   157  1.21  0.91  78.3  17.6  8.66  0.00  0.00  0.00  0.00  0.00  0.00   2.0  0.00  0.00  0.00  0.00
 2023  69   190   107  19.4  -6.0 62.33 41.71  0.98  2.88 317.8  4.67 1.734  6.41 10817     9  1507  9302  3006  5329     0  0.00   699   560  1733   268  2350 44.38  19.2     0     0  1713   155  1.21  0.93  73.6  16.0  8.65  0.00  0.00  0.00  0.00  0.00  0.00   2.0  0.00  0.00  0.00  0.00
 2023  70   191   108  19.6  -6.0 70.33 41.71  0.98  2.88 313.2  4.60 1.769  6.37 11123     9  1515  9600  2988  5441     0  0.00   883   696  1842   288  2350 45.86  19.8     0     0  1663   154  1.21  0.95  69.1  15.2  7.95  0.00  0.00  0.00  0.00  0.00  0.00   2.0  0.00  0.00  0.00  0.00
 2023  71   192   109  22.8  -6.0 72.08 41.71  0.98  2.88 311.4  4.51 1.802  6.31 11428     9  1519  9901  2965  5545    11  0.00  1069   843  1945   311  2350 47.58  20.3 14153 .0001  1607   152  1.21  0.97  64.3  13.4  5.48  0.00  0.00  0.00  0.00  0.00  0.00   2.0  0.00  0.18  0.00  0.00
 2023  72   193   110  22.0  -6.0 73.77 41.71  0.98  2.88 318.0  4.43 1.784  6.21 11742     9  1521 10212  2944  5689    75  0.01  1170   908  2214   333  2350 49.25  22.6 14153 .0005  1555   150  1.21  0.98  59.5  12.4  3.89  0.00  0.00  0.00  0.00  0.00  0.00   2.0  0.00  0.13  0.00  0.00
 2023  73   194   111  19.8  -6.0 75.30 41.71  0.98  2.88 325.9  4.36 1.767  6.12 12064     9  1524 10532  2926  5853   181  0.02  1218  1014  2447   353  2350 50.76  24.5 14153 .0013  1510   149  1.21  0.98  54.6  11.5  2.82  0.00  0.00  0.00  0.00  0.00  0.00   2.0  0.00  0.00  0.00  0.00
 2023  74   195   112  19.5  -6.0 76.79 41.71  0.97  2.88 286.2  4.29 1.752  6.04 12346     9  1526 10812  2907  5956   327  0.03  1249  1159  2602   373  2350 52.24  25.7 14153 .0023  1468   147  1.21  0.98  50.4  12.2  2.34  0.00  0.00  0.00  0.00  0.00  0.00   2.0  0.00  0.00  0.00  0.00
 2023  75   196   113  20.5  -6.0 78.37 41.71  0.97  2.88 261.9  4.21 1.735  5.95 12604     9  1527 11069  2885  6001   524  0.05  1265  1356  2683   394  2350 53.81  26.4 14153 .0037  1425   146  1.21  0.98  46.5  12.2  1.91  0.00  0.00  0.00  0.00  0.00  0.00   2.0  0.00  0.03  0.00  0.00
 2023  76   197   114  20.0  -6.0 79.91 41.71  0.97  2.88 111.8  4.14 1.720  5.86 12714     9  1527 11178  2864  5898   761  0.07  1239  1594  2576   415  2350 55.34  25.8 14153 .0054  1385   144  1.21  0.98  98.6  62.2  3.56  0.00  0.00  0.00  0.00  0.00  0.00   2.0  0.00  0.00  0.00  0.00
 2023  77   198   115  19.0  -6.0 80.37 41.71  0.97  2.88 304.2  4.07 1.706  5.78 13014     9  1529 11476  2844  5921  1029  0.09  1248  1861  2627   435  2350 56.79  26.2 14153 .0073  1348   143  1.21  0.98 123.3  28.9  7.91  0.00  0.00  0.00  0.00  0.00  0.00   2.0  0.00  0.00  0.00  0.00
 2023  78   199   116  19.0  -6.0 80.77 41.71  0.97  2.88 319.0  4.03 1.691  5.72 13329     9  1532 11789  2844  5944  1304  0.11  1255  2136  2671   442  2350 58.25  26.6 14153 .0092  1313   142  1.21  0.98 107.9  24.0  9.37  0.00  0.00  0.00  0.00  0.00  0.00   2.0  0.00  0.00  0.00  0.00
 2023  79   200   117  19.0  -6.0 81.17 41.71  0.97  2.88 315.9  4.00 1.677  5.67 13641     9  1534 12099  2844  5966  1579  0.13  1260  2412  2712   449  2350 59.71  26.9 14153 .0112  1279   141  1.21  0.98  89.6  20.2  9.44  0.00  0.00  0.00  0.00  0.00  0.00   2.0  0.00  0.00  0.00  0.00
 2023  80   201   118  20.1  -6.0 81.59 41.71  0.97  2.88 312.7  3.96 1.663  5.62 13950     9  1536 12405  2843  5973  1870  0.15  1263  2703  2735   457  2350 61.25  27.1 14153 .0132  1244   139  1.21  0.98  82.3  18.6 10.20  0.00  0.00  0.00  0.00  0.00  0.00   2.0  0.00  0.01  0.00  0.00
 2023  81   202   119  20.2  -6.0 82.01 41.71  0.96  2.88 312.4  3.92 1.649  5.57 14258     9  1538 12711  2842  5978  2163  0.17  1264  2995  2756   464  2350 62.80  27.3 14153 .0153  1211   138  1.21  0.98  77.7  17.2  9.98  0.00  0.00  0.00  0.00  0.00  0.00   2.0  0.00  0.02  0.00  0.00
 2023  82   203   120  19.6  -6.0 82.42 41.71  0.96  2.88 324.5  3.88 1.635  5.52 14579     9  1541 13029  2842  5999  2446  0.19  1270  3279  2798   472  2350 64.31  27.7 14153 .0173  1179   137  1.21  0.98  73.1  15.9  9.47  0.00  0.00  0.00  0.00  0.00  0.00   2.0  0.00  0.00  0.00  0.00
 2023  83   204   121  17.6  -6.0 82.79 41.71  0.96  2.88 346.3  3.85 1.624  5.47 14921     9  1544 13369  2842  6060  2701  0.20  1287  3533  2890   478  2350 65.67  28.4 14153 .0191  1153   135  1.21  0.98  68.4  14.5  6.93  0.00  0.00  0.00  0.00  0.00  0.00   2.0  0.00  0.00  0.00  0.00
 2023  84   205   122  17.1  -6.0 83.15 41.71  0.96  2.88 332.1  3.82 1.612  5.43 15249     9  1546 13694  2842  6117  2948  0.22  1303  3780  2975   485  2350 66.99  29.0 14153 .0208  1127   134  1.21  0.98  63.8  14.2  5.50  0.00  0.00  0.00  0.00  0.00  0.00   2.0  0.00  0.00  0.00  0.00
 2023  85   206   123  17.5  -6.0 83.52 41.71  0.96  2.88 334.5  3.79 1.601  5.39 15579     9  1549 14022  2840  6171  3201  0.23  1318  4034  3056   492  2350 68.34  29.6 14153 .0226  1103   133  1.21  0.98  59.0  12.9  3.97  0.00  0.00  0.00  0.00  0.00  0.00   2.0  0.00  0.00  0.00  0.00
 2023  86   207   124  17.5  -6.0 83.88 41.71  0.96  2.88 259.6  3.75 1.590  5.34 15835     9  1551 14276  2839  6167  3455  0.24  1317  4287  3063   498  2350 69.70  29.7 14153 .0244  1079   132  1.21  0.98  98.2  27.6  3.75  0.00  0.00  0.00  0.00  0.00  0.00   2.0  0.00  0.00  0.00  0.00
 2023  87   208   125  18.8  -6.0 84.27 41.71  0.96  2.88 311.7  3.72 1.578  5.30 16143     9  1553 14582  2837  6190  3726  0.26  1323  4558  3105   506  2350 71.15  30.0 14153 .0263  1054   131  1.21  0.98  87.4  19.9  9.22  0.00  0.00  0.00  0.00  0.00  0.00   2.0  0.00  0.00  0.00  0.00
 2023  88   209   126  18.0  -6.0 84.65 41.71  0.96  2.88 322.3  3.69 1.567  5.26 16461     9  1555 14897  2836  6228  3986  0.27  1334  4819  3168   513  2350 72.55  30.5 14153 .0282  1031   130  1.21  0.98  81.3  18.2 10.20  0.00  0.00  0.00  0.00  0.00  0.00   2.0  0.00  0.00  0.00  0.00
 2023  89   210   127  19.3  -6.0 85.05 41.71  0.96  2.88 317.8  3.66 1.555  5.21 16775     9  1558 15209  2834  6250  4265  0.28  1340  5098  3208   520  2350 74.05  30.8 14153 .0301  1007   129  1.21  0.98  76.6  17.0 10.12  0.00  0.00  0.00  0.00  0.00  0.00   2.0  0.00  0.00  0.00  0.00
 2023  90   211   128  18.7  -6.0 85.45 41.71  0.95  2.88 350.3  3.46 1.544  5.00 17121     9  1561 15552  2701  6330  4536  0.29  1380  5368  3365   605  2350 75.51  32.3 14153 .0320   985   128  1.21  0.98  71.5  14.7  8.51  0.00  0.00  0.00  0.00  0.00  0.00   2.0  0.00  0.00  0.00  0.00
 2023  91   212   129  19.4  -6.0 85.85 41.71  0.94  2.88 337.8  3.26 1.533  4.79 17455     9  1563 15883  2571  6393  4815  0.30  1416  5648  3499   688  2350 77.02  33.7 14153 .0340   963   127  1.21  0.98  66.5  13.9  6.34  0.00  0.00  0.00  0.00  0.00  0.00   2.0  0.00  0.00  0.00  0.00
 2023  92   213   130  20.8  -6.0 86.29 41.71  0.93  2.88 326.3  3.06 1.521  4.58 17777     9  1565 16203  2434  6433  5117  0.32  1445  5949  3604   774  2350 78.65  34.9 14153 .0362   940   126  1.21  0.98  61.5  13.1  4.73  0.00  0.00  0.00  0.00  0.00  0.00   2.0  0.00  0.06  0.00  0.00
 2023  93   214   131  18.6  -6.0 86.68 41.71  0.91  2.88 307.6  2.85 1.510  4.36 18080     9  1568 16504  2285  6486  5387  0.33  1480  6219  3728   867  2350 80.11  36.4 14153 .0381   921   125  1.21  0.98  57.0  13.4  3.79  0.00  0.00  0.00  0.00  0.00  0.00   2.0  0.00  0.00  0.00  0.00
 2023  94   215   132  17.1  -6.0 87.03 41.71  0.90  2.88 332.9  2.66 1.501  4.16 18409     9  1570 16831  2150  6573  5634  0.33  1523  6466  3891   951  2350 81.45  38.0 14153 .0398   903   124  1.21  0.98  52.2  12.0  2.76  0.00  0.00  0.00  0.00  0.00  0.00   2.0  0.00  0.00  0.00  0.00
 2023  95   216   133  15.9  -6.0 87.37 41.71  0.88  2.88 322.1  2.49 1.492  3.98 18728     9  1573 17146  2025  6667  5861  0.34  1566  6693  4057  1028  2350 82.69  39.5 14153 .0414   888   123  1.21  0.98  47.8  11.7  2.19  0.00  0.00  0.00  0.00  0.00  0.00   2.0  0.00  0.00  0.00  0.00
 2023  96   217   134  15.9  -6.0 87.70 41.71  0.86  2.88 331.3  2.33 1.484  3.81 19055     9  1576 17471  1907  6766  6089  0.35  1609  6922  4225  1099  2350 83.94  41.1 14153 .0430   872   122  1.21  0.98  43.1  10.2  1.60  0.00  0.00  0.00  0.00  0.00  0.00   2.0  0.00  0.00  0.00  0.00
 2023  97   218   135  17.3  -6.0 88.06 41.71  0.84  2.88 324.7  2.17 1.475  3.64 19376     9  1578 17789  1788  6844  6339  0.36  1646  7172  4365  1171  2350 85.31  42.5 14153 .0448   856   121  1.21  0.98  38.8   9.2  1.19  0.00  0.00  0.08  0.00  0.00  0.00   1.7  0.00  0.00  0.00  0.00
 2023  98   219   136  19.2  -6.0 88.46 41.71  0.82  2.51 280.2  1.99 1.460  3.45 19652     9  1580 18064  1658  6844  6617  0.37  1675  7450  4441  1270  2350 86.82  43.6 14153 .0468   839   120  1.21  0.98  35.1   8.2  0.87  0.25  0.13  0.33  0.00  0.00  0.00   1.1  0.00  0.00  0.00  0.00
 2023  99   220   137  20.0  -6.0 88.88 41.71  0.78  1.97 215.2  1.80 1.445  3.25 19864     9  1581 18275  1511  6789  6906  0.38  1691  7739  4450  1378  2350 88.40  44.5 14153 .0488   822   119  1.21  0.98  32.1   7.6  0.69  0.63  0.31  0.47  0.00  0.00  0.00   0.9  0.00  0.00  0.00  0.00
 2023 100   221   138  19.5  -6.0 89.29 41.71  0.74  1.85 180.0  1.60 1.431  3.03 20041     9  1582 18451  1355  6715  7188  0.39  1703  8021  4436  1489  2350 89.94  45.4 14153 .0508   805   118  1.21  0.98  29.7   8.1  0.64  0.71  0.36  0.50  0.00  0.00  0.00   0.8  0.00  0.00  0.00  0.00
 2023 101   222   139  21.5  -6.0 89.74 41.71  0.69  1.57 149.7  1.38 1.415  2.79 20188     9  1582 18598  1175  6598  7500  0.40  1708  8332  4377  1617  2350 91.65  46.2 14153 .0530   788   117  1.21  0.98  27.7   7.5  0.54  0.91  0.46  0.58  0.00  0.00  0.00   0.5  0.00  0.10  0.00  0.00
 2023 102   223   140  20.7  -6.0 90.40 41.71  0.62  1.40 123.1  1.14 1.400  2.54 20308     9  1582 18718   980  6565  7685  0.41  1738  8518  4426  1751  2350 93.28  47.7 14153 .0543   771   116  1.21  0.98  25.9   7.9  0.54  0.93  0.46  0.59  0.09  0.09  0.09   0.5  0.00  0.04  0.00  0.00

*DSSAT Cropping System Model Ver. 4.8.2.000 -release  JUL 05, 2025 22:16:38

*RUN   2        : WW23_G-2                  CSCER048 CIOB2301    2
 MODEL          : CSCER048 - Wheat
 EXPERIMENT     : CIOB2301 WH ROOTS ANATOMY
 DATA PATH      : C:\DSSAT48\Wheat\
 TREATMENT  2   : WW23_G-2                  CSCER048
  
@YEAR DOY   DAS   DAP TMEAN TKILL  GSTD  L#SD PARID PARUD  AWAD  LAID  SAID  CAID  TWAD SDWAD  RWAD  CWAD  LWAD  SWAD  HWAD  HIAD CHWAD  EWAD RSWAD SNWPD SNWLD SNWSD  RS%D  H#AD  HWUD  T#AD  SLAD  RDPD  PTFD  SWXD WAVRD WUPRD  WFTD  WFPD  WFGD  NFTD  NFPD  NFGD NUPRD  TFPD  TFGD VRNFD DYLFD
 2022 327    83     0  17.6  -6.0  0.00  0.00  0.00  0.00   0.0  0.00 0.000  0.00    43    43     0     0     0     0     0  0.00     0     0     0     0     0     0   0.0     0     0   150   -99  0.04  0.98  19.7  99.9  1.00  0.00  0.00  0.00  0.00  0.00  0.00   0.0  0.00  0.00  0.60  0.00
 2022 328    84     1  16.4  -6.0  5.84  0.00  0.00  0.00   0.0  0.00 0.000  0.00    43    43     0     0     0     0     0  0.00     0     0     0     0     0     0   0.0     0     0   150   -99  0.04  0.98   7.2  99.9  1.00  0.00  0.00  0.00  0.00  0.00  0.00   0.0  0.00  0.00  0.60  0.00
 2022 329    85     2  17.4  -6.0  8.40  0.00  0.00  0.00   0.0  0.00 0.000  0.00    43    41     1     0     0     0     0  0.00     0     0     0     0     0     0   0.0     0     0   150   -99  0.07  0.98   4.4  99.9  1.00  0.00  0.00  0.00  0.00  0.00  0.00   0.0  0.00  0.00  0.60  0.00
 2022 330    86     3  18.0  -6.0 10.00  0.00  0.00  0.00   0.0  0.00 0.000  0.00    43    40     3     0     0     0     0  0.00     0     0     0     0     0 .0012   0.0     0     0   150   -99  0.09  0.98   3.8  99.9  1.00  0.00  0.00  0.00  0.00  0.00  0.00   2.0  0.00  0.00  0.60  0.00
 2022 331    87     4  16.3  -6.0 10.87  0.87  0.03  0.00   0.0  0.03 0.003  0.04    43    26     4    13     9     4     0  0.00     0     0     0     0     0 .0034   0.0     0     0   150   400  0.12  0.75   3.9  99.9  1.00  0.00  0.00  0.00  0.00  0.00  0.00   0.1  0.00  0.00  0.60  0.64
 2022 332    88     5  16.1  -6.0 11.73  1.73  0.04  0.70   1.6  0.05 0.004  0.05    44    20     5    19    12     7     0  0.00     0     0     1     0 0.128 .0066   6.5     0     0   150   396  0.14  0.68   4.2  49.4  0.24  1.00  0.76  0.81  0.00  0.00  0.00   0.1  0.00  0.00  0.60  0.65
 2022 333    89     6  18.1  -6.0 12.35  2.35  0.05  0.48   1.5  0.06 0.005  0.06    45    15     7    23    14     9     0  0.00     0     0     2     0 0.302 .0113  10.3     0     0   150   394  0.17  0.68   5.7  47.9  0.23  1.00  0.77  0.82  0.27  0.27  0.27   0.2  0.00  0.00  0.60  0.65
 2022 334    90     7  18.5  -6.0 12.84  2.84  0.05  0.53   1.9  0.06 0.006  0.07    46    11     8    27    16    11     0  0.00     0     0     3     0 0.509 .0173  10.7     0     0   150   392  0.20  0.69   7.2  52.4  0.29  1.00  0.71  0.78  0.37  0.37  0.37   0.3  0.00  0.00  0.60  0.65
 2022 335    91     8  19.2  -6.0 13.35  3.35  0.06  0.53   2.2  0.07 0.006  0.08    48     9     9    30    18    12     0  0.00     0     0     3     0 0.750 .0250   9.8     0     0   150   390  0.23  0.69   8.9  53.9  0.32  1.00  0.68  0.75  0.42  0.42  0.42   0.6  0.00  0.00  0.60  0.65
 2022 336    92     9  23.0  -6.0 13.96  3.96  0.06  0.55   2.4  0.07 0.007  0.08    50     9    10    32    19    13     0  0.00     0     0     3     0 1.016 .0354   9.2     0     0   150   388  0.26  0.70  10.9  58.9  0.33  1.00  0.67  0.75  0.41  0.41  0.41   0.9  0.00  0.20  0.60  0.65
 2022 337    93    10  23.0  -6.0 14.57  4.57  0.06  0.64   2.7  0.08 0.007  0.09    52     9    10    33    20    13     0  0.00     0     0     3     0 1.299 .0464   8.8     0     0   150   387  0.29  0.70  12.9  72.5  0.35  1.00  0.65  0.73  0.36  0.36  0.36   1.1  0.00  0.20  0.60  0.65
 2022 338    94    11  22.0  -6.0 15.16  5.16  0.05  0.72   3.1  0.06 0.006  0.07    50     9    11    31    16    15     0  0.00     0     0     7     0 5.621 .0575  22.4     0     0   150   384  0.33  0.70  14.8  83.9  0.37  1.00  0.63  0.72  0.32  0.32  0.32   1.2  0.00  0.13  0.60  0.66
 2022 339    95    12  22.2  -6.0 15.75  5.75  0.05  2.10   2.9  0.06 0.005  0.06    51     9    11    32    16    16     0  0.00     0     0     8     0 7.343 .0693  25.4     0     0   215   380  0.36  0.74  17.0  99.9  1.22  0.00  0.00  0.06  0.27  0.27  0.27   2.0  0.00  0.15  0.60  0.66
 2022 340    96    13  19.7  -6.0 16.27  6.27  0.05  2.24   2.1  0.06 0.005  0.06    52     9    11    32    15    17     0  0.00     0     0     9     0 8.881 .0802  27.7     0     0   276   377  0.38  0.74  20.2  99.9  1.92  0.00  0.00  0.00  0.22  0.22  0.22   2.0  0.00  0.00  0.60  0.66
 2022 341    97    14  20.0  -6.0 21.27  6.80  0.05  2.34   3.6  0.06 0.005  0.06    53     9    12    33    15    18     0  0.00     0     0    10     0 10.71 .0916  30.0     0     0   341   372  0.40  0.75  20.7  99.9  1.30  0.00  0.00  0.00  0.19  0.19  0.19   2.0  0.00  0.00  0.60  0.66
 2022 342    98    15  20.8  -6.0 21.52  7.35  0.05  1.59   5.0  0.06 0.005  0.06    56     9    13    34    15    19     0  0.00     0     0    11     0 12.64 0.104  31.4     0     0   377   367  0.42  0.73  21.4  99.9  0.65  0.71  0.35  0.50  0.15  0.15  0.15   1.8  0.00  0.05  0.60  0.66
 2022 343    99    16  18.0  -6.0 21.75  7.83  0.05  1.69   6.0  0.06 0.006  0.07    60     9    14    38    18    20     0  0.00     0     0    11     0 13.72 0.115  28.8     0     0   412   361  0.44  0.73  22.5  99.9  0.66  0.68  0.34  0.49  0.11  0.11  0.11   1.6  0.00  0.00  0.60  0.66
 2022 344   100    17  17.0  -6.0 21.94  8.29  0.06  1.69   7.1  0.07 0.007  0.08    65     9    15    42    20    22     0  0.00     0     0    11     0 14.76 0.127  26.1     0     0   441   356  0.45  0.73  23.5  99.9  0.64  0.72  0.36  0.51  0.08  0.08  0.08   1.1  0.00  0.00  0.60  0.66
 2022 345   101    18  16.2  -6.0 22.16  8.72  0.07  1.81   8.3  0.08 0.008  0.09    72     9    16    47    24    23     0  0.00     0     0    11     0 15.59 0.139  22.8     0     0   474   351  0.47  0.74  24.4  99.9  0.67  0.66  0.33  0.48  0.06  0.06  0.06   1.0  0.00  0.00  0.60  0.66
 2022 346   102    19  16.1  -6.0 22.36  9.15  0.08  1.81   9.7  0.10 0.010  0.11    80     9    18    53    28    25     0  0.00     0     0    11     0 16.43 0.152  19.9     0     0   504   346  0.48  0.74  25.3  99.9  0.66  0.68  0.34  0.49  0.04  0.04  0.04   0.9  0.00  0.00  0.60  0.66
 2022 347   103    20  15.1  -6.0 22.61  9.55  0.09  1.94  11.3  0.11 0.012  0.12    89     9    19    61    33    28     0  0.00     0     0    11     0 17.35 0.165  17.5     0     0   542   342  0.50  0.74  72.9  99.9  0.71  0.58  0.29  0.45  0.05  0.05  0.05   0.8  0.00  0.00  0.60  0.67
 2022 348   104    21  15.2  -6.0 23.18  9.95  0.11  2.67  19.3  0.14 0.015  0.16   105     9    22    75    42    33     0  0.00     0     0    11     0 18.29 0.180  14.5     0     0   627   337  0.51  0.76  56.0  99.9  2.07  0.00  0.00  0.00  0.07  0.07  0.07   1.2  0.00  0.00  0.60  0.67
 2022 349   105    22  14.6  -6.0 23.73 10.34  0.14  2.73  23.8  0.18 0.019  0.19   126     9    25    92    53    39     0  0.00     0     0    11     0 19.21 0.196  12.0     0     0   710   333  0.53  0.77  40.6  99.9  2.05  0.00  0.00  0.00  0.05  0.05  0.05   1.0  0.00  0.00  0.60  0.67
 2022 350   106    23  12.5  -6.0 24.21 10.68  0.16  2.78  16.6  0.20 0.021  0.22   140     9    28   104    60    43     0  0.00     0     0    11     0 20.29 0.212  10.8     0     0   782   330  0.54  0.77  34.5  99.9  2.53  0.00  0.00  0.00  0.03  0.03  0.03   1.1  0.00  0.00  0.58  0.67
 2022 351   107    24  14.9  -6.0 24.80 11.07  0.19  2.80  32.0  0.24 0.027  0.27   168     9    32   127    75    52     0  0.00     0     0    12     0 21.58 0.233   9.4     0     0   869   326  0.55  0.77  32.4  78.5  1.35  0.00  0.00  0.00  0.03  0.03  0.03   0.6  0.00  0.00  0.58  0.67
 2022 352   108    25  15.5  -6.0 25.34 11.49  0.22  2.52  35.1  0.29 0.032  0.32   197     9    37   151    90    61     0  0.00     0     0    13     0 23.78 0.258   8.9     0     0   951   322  0.57  0.76  32.8  65.6  1.20  0.00  0.00  0.07  0.12  0.12  0.12   0.6  0.00  0.00  0.58  0.67
 2022 353   109    26  14.8  -6.0 25.82 11.88  0.25  2.37  38.7  0.34 0.038  0.38   230     9    43   179   107    72     0  0.00     0     0    15     0 25.91 0.285   8.3     0     0  1023   319  0.58  0.76  33.1  56.9  1.12  0.00  0.00  0.14  0.18  0.18  0.18   0.7  0.00  0.00  0.58  0.67
 2022 354   110    27  16.6  -6.0 26.35 12.32  0.28  2.30  39.6  0.39 0.044  0.43   263     9    49   206   123    82     0  0.00     0     0    16     0 28.32 0.321   8.0     0     0  1103   316  0.60  0.75  33.4  53.1  1.11  0.00  0.00  0.14  0.20  0.20  0.20   0.7  0.00  0.00  0.58  0.67
 2022 355   111    28  15.2  -6.0 26.84 12.72  0.32  2.23  48.3  0.45 0.051  0.50   303     9    56   239   143    96     0  0.00     0     0    19     0 31.64 0.358   7.9     0     0  1176   313  0.61  0.75  33.6  43.4  0.97  0.05  0.03  0.25  0.20  0.20  0.20   0.7  0.00  0.00  0.58  0.67
 2022 356   112    29  15.3  -6.0 27.32 13.13  0.35  2.08  51.0  0.51 0.059  0.57   346     9    63   274   164   110     0  0.00     0     0    21     0 35.02 0.400   7.7     0     0  1248   310  0.63  0.75  33.7  38.1  0.92  0.15  0.08  0.29  0.22  0.22  0.22   0.7  0.00  0.00  0.58  0.67
 2022 357   113    30  15.9  -6.0 27.77 13.56  0.38  1.92  51.6  0.56 0.065  0.62   386     9    71   307   182   125     0  0.00     0     0    26     0 41.31 0.451   8.6     0     0  1315   307  0.64  0.75  33.7  34.2  0.85  0.29  0.15  0.34  0.22  0.22  0.22   0.8  0.00  0.00  0.58  0.67
 2022 358   114    31  16.2  -6.0 28.15 13.99  0.40  1.81  52.7  0.61 0.072  0.68   427     9    78   340   200   140     0  0.00     0     0    31     0 47.78 0.508   9.1     0     0  1372   304  0.65  0.75  33.8  31.6  0.80  0.41  0.20  0.39  0.21  0.21  0.21   0.9  0.00  0.00  0.58  0.67
 2022 359   115    32  17.8  -6.0 28.45 14.46  0.43  1.68  52.5  0.67 0.079  0.75   470     9    86   375   222   153     0  0.00     0     0    33     0 51.85 0.578   8.8     0     0  1418   302  0.67  0.75  34.0  28.5  0.71  0.57  0.29  0.45  0.18  0.18  0.18   1.0  0.00  0.00  0.59  0.67
 2022 360   116    33  17.0  -6.0 28.67 14.91  0.45  1.61  54.8  0.70 0.084  0.79   508     9    95   404   234   170     0  0.00     0     0    42     0 63.26 0.651  10.4     0     0  1451   299  0.68  0.74  34.1  26.7  0.66  0.68  0.34  0.49  0.15  0.15  0.15   0.9  0.00  0.00  0.59  0.67
 2022 361   117    34  17.5  -6.0 28.86 15.38  0.46  1.58  54.8  0.73 0.089  0.82   545     9   103   433   247   187     0  0.00     0     0    51     0 75.11 0.734  11.7     0     0  1479   297  0.70  0.74  34.3  26.0  0.64  0.73  0.36  0.51  0.14  0.14  0.14   1.3  0.00  0.00  0.60  0.67
 2022 362   118    35  16.6  -6.0 29.45 15.82  0.47  2.54  57.2  0.76 0.093  0.85   581     9   111   462   257   205     0  0.00     0     0    62     0 90.28 0.820  13.4     0     0  1567   294  0.71  0.77  34.5  42.1  1.02  0.00  0.00  0.22  0.12  0.12  0.12   1.2  0.00  0.00  0.60  0.67
 2022 363   119    36  17.2  -6.0 30.00 16.28  0.47  2.60  25.9  0.74 0.092  0.83   589     9   115   466   252   214     0  0.00     0     0    72     0 106.1 0.916  15.5     0     0  1661   292  0.72  0.77  35.4  98.7  2.30  0.00  0.00  0.00  0.09  0.09  0.09   2.0  0.00  0.00  0.60  0.67
 2022 364   120    37  18.6  -6.0 30.00 16.77  0.47  1.67  56.8  0.74 0.093  0.83   619     9   123   488   255   232     0  0.00     0     0    86     0 126.6 1.022  17.7     0     0  1690   289  0.74  0.74  35.6  27.5  0.63  0.73  0.37  0.51  0.08  0.08  0.08   1.7  0.00  0.00  0.60  0.67
 2022 365   121    38  17.8  -6.0 30.00 17.19  0.47  1.63  58.2  0.75 0.096  0.84   652     9   132   511   261   250     0  0.00     0     0    99     0 146.5 1.132  19.4     0     0  1713   285  0.75  0.74  35.9  26.7  0.61  0.78  0.39  0.53  0.06  0.06  0.06   2.0  0.00  0.00  0.60  0.67
 2023   1   122    39  16.6  -6.0 30.00 17.53  0.48  1.97  61.9  0.78 0.101  0.88   692     9   141   542   276   266     0  0.00     0     0   106     0 162.2 1.242  19.6     0     0  1747   281  0.77  0.75  36.1  31.8  0.72  0.56  0.28  0.44  0.05  0.05  0.05   1.8  0.00  0.00  0.60  0.66
 2023   2   123    40  15.1  -6.0 30.00 17.84  0.50  2.45  65.2  0.82 0.108  0.93   736     9   150   578   295   283     0  0.00     0     0   111     0 176.7 1.349  19.3     0     0  1802   278  0.78  0.77  36.2  39.0  0.89  0.22  0.11  0.32  0.04  0.04  0.04   1.3  0.00  0.00  0.60  0.66
 2023   3   124    41  13.8  -6.0 30.00 18.12  0.52  1.78  67.6  0.87 0.116  0.98   784     9   160   615   316   299     0  0.00     0     0   115     0 190.0 1.452  18.7     0     0  1819   275  0.79  0.75  78.4  60.3  0.64  0.72  0.36  0.51  0.03  0.03  0.03   1.2  0.00  0.00  0.59  0.66
 2023   4   125    42  16.3  -6.0 30.00 18.46  0.56  2.81 114.3  0.97 0.132  1.10   873     9   175   689   359   330     0  0.00     0     0   121     0 204.8 1.583  17.5     0     0  1893   270  0.80  0.78  61.8  39.9  3.04  0.00  0.00  0.00  0.02  0.02  0.02   1.7  0.00  0.00  0.59  0.66
 2023   5   126    43  17.6  -6.0 30.00 18.82  0.60  2.83 127.9  1.08 0.150  1.23   973     9   192   773   407   365     0  0.00     0     0   128     0 221.1 1.738  16.6     0     0  1973   266  0.82  0.78  54.6  31.3  2.96  0.00  0.00  0.00  0.02  0.02  0.02   1.7  0.00  0.00  0.60  0.66
 2023   6   127    44  18.3  -6.0 30.00 19.19  0.64  2.85 135.4  1.21 0.169  1.38  1079     9   210   861   459   403     0  0.00     0     0   135     0 238.2 1.913  15.7     0     0  2056   263  0.83  0.78  51.7  28.3  2.54  0.00  0.00  0.00  0.01  0.01  0.01   1.5  0.00  0.00  0.60  0.66
 2023   7   128    45  17.7  -6.0 30.00 19.55  0.68  2.86 140.4  1.33 0.189  1.52  1191     9   228   955   514   441     0  0.00     0     0   142     0 254.9 2.099  14.9     0     0  2137   259  0.85  0.78  49.9  26.9  2.31  0.00  0.00  0.00  0.01  0.01  0.01   1.3  0.00  0.00  0.60  0.66
 2023   8   129    46  17.3  -6.0 30.00 19.91  0.71  2.87 148.9  1.47 0.211  1.68  1310     9   247  1055   573   481     0  0.00     0     0   148     0 271.4 2.295  14.0     0     0  2217   256  0.86  0.78  48.7  25.0  2.01  0.00  0.00  0.00  0.00  0.00  0.00   1.1  0.00  0.00  0.60  0.66
 2023   9   130    47  16.6  -6.0 30.00 20.25  0.75  2.88 164.1  1.63 0.236  1.87  1444     9   268  1168   642   526     0  0.00     0     0   153     0 287.5 2.501  13.1     0     0  2293   254  0.88  0.79  47.5  22.3  1.63  0.00  0.00  0.00  0.00  0.00  0.00   1.0  0.00  0.00  0.60  0.66
 2023  10   131    48  17.2  -6.0 30.00 20.60  0.78  2.88 167.1  1.79 0.262  2.05  1580     9   289  1283   712   571     0  0.00     0     0   158     0 303.2 2.731  12.3     0     0  2372   251  0.89  0.79  46.3  21.0  1.43  0.00  0.00  0.00  0.00  0.00  0.00   1.0  0.00  0.00  0.60  0.65
 2023  11   132    49  17.9  -6.0 30.00 20.97  0.81  2.88 183.0  1.96 0.290  2.25  1731     9   312  1410   790   621     0  0.00     0     0   163     0 319.8 2.990  11.6     0     0  2455   248  0.91  0.79  44.8  18.2  1.20  0.00  0.00  0.08  0.00  0.00  0.00   0.9  0.00  0.00  0.60  0.65
 2023  12   133    50  18.4  -6.0 30.00 21.34  0.84  2.84 188.6  2.14 0.319  2.46  1886     9   336  1541   869   672     0  0.00     0     0   169     0 337.0 3.277  11.0     0     0  2538   246  0.92  0.79  43.2  16.8  1.08  0.00  0.00  0.17  0.01  0.01  0.01   0.8  0.00  0.00  0.60  0.65
 2023  13   134    51  16.6  -6.0 30.00 21.68  0.85  2.59 175.9  2.26 0.341  2.60  2018     9   359  1651   927   723     0  0.00     0     0   185     0 364.9 3.556  11.2     0     0  2604   244  0.93  0.78  41.7  16.2  0.93  0.14  0.07  0.28  0.03  0.03  0.03   0.8  0.00  0.00  0.60  0.65
 2023  14   135    52  17.6  -6.0 30.00 22.04  0.86  2.17 148.1  2.34 0.357  2.70  2122     9   379  1734   969   765     0  0.00     0     0   200     0 394.8 3.873  11.5     0     0  2651   242  0.95  0.77  40.7  15.3  0.79  0.43  0.21  0.40  0.04  0.04  0.04   1.2  0.00  0.00  0.60  0.65
 2023  15   136    53  16.9  -6.0 30.00 22.39  0.86  2.79 132.3  2.35 0.363  2.72  2196     9   396  1791   982   809     0  0.00     0     0   231     0 441.8 4.193  12.9     0     0  2726   240  0.96  0.79  40.0  22.5  1.04  0.00  0.00  0.20  0.03  0.03  0.03   1.3  0.00  0.00  0.60  0.65
 2023  16   137    54  17.0  -6.0 30.00 22.74  0.86  1.79 123.7  2.35 0.368  2.72  2259     9   414  1837   989   847     0  0.00     0     0   259     0 489.5 4.529  14.1     0     0  2747   238  0.98  0.75  39.4  15.2  0.64  0.72  0.36  0.51  0.02  0.02  0.02   2.0  0.00  0.00  0.60  0.64
 2023  17   138    55  14.1  -6.0 30.00 23.02  0.86  2.82  58.5  2.32 0.365  2.69  2273     9   421  1843   981   862     0  0.00     0     0   274     0 529.5 4.821  14.9     0     0  2811   237  0.99  0.79  39.7  54.8  2.08  0.00  0.00  0.00  0.02  0.02  0.02   2.0  0.00  0.00  0.60  0.64
 2023  18   139    56  13.8  -6.0 30.00 23.31  0.86  1.76 116.8  2.32 0.370  2.69  2331     9   438  1885   989   895     0  0.00     0     0   296     0 575.8 5.111  15.7     0     0  2826   234  1.00  0.75  39.2  16.8  0.62  0.76  0.38  0.52  0.01  0.01  0.01   2.0  0.00  0.00  0.59  0.64
 2023  19   140    57  14.2  -6.0 30.00 23.60  0.85  1.64 107.9  2.26 0.366  2.63  2366     9   454  1903   973   930     0  0.00     0     0   332     0 638.3 5.424  17.5     0     0  2836   232  1.01  0.75  38.7  16.5  0.58  0.85  0.42  0.56  0.01  0.01  0.01   2.0  0.00  0.00  0.58  0.64
 2023  20   141    58  13.8  -6.0 30.00 23.88  0.85  1.41 102.6  2.21 0.363  2.57  2396     9   470  1918   958   960     0  0.00     0     0   363     0 699.1 5.736  18.9     0     0  2836   230  1.02  0.74  95.1  36.8  0.49  1.00  0.51  0.62  0.01  0.01  0.01   2.0  0.00  0.00  0.58  0.64
 2023  21   142    59  14.1  -6.0 30.00 24.17  0.87  2.86 208.6  2.39 0.396  2.78  2561     9   496  2057  1048  1009     0  0.00     0     0   359     0 725.2 6.067  17.4     0     0  2901   228  1.03  0.79  80.0  31.1  5.36  0.00  0.00  0.00  0.00  0.00  0.00   2.0  0.00  0.00  0.57  0.63
 2023  22   143    60  14.1  -6.0 30.00 24.45  0.88  2.87 219.5  2.46 0.417  2.88  2705     9   523  2174  1100  1074     0  0.00     0     0   387     0 782.4 6.415  17.8     0     0  2966   224  1.05  0.79  72.2  26.5  5.36  0.00  0.00  0.00  0.00  0.00  0.00   1.8  0.00  0.00  0.57  0.63
 2023  23   144    61  12.6  -6.0 30.00 24.71  0.88  2.88 187.9  2.54 0.435  2.97  2825     9   546  2271  1146  1125     0  0.00     0     0   406     0 834.3 6.743  17.9     0     0  3000   221  1.06  0.79  70.3  31.5  6.86  0.00  0.00  0.00  0.00  0.00  0.00   2.0  0.00  0.00  0.55  0.63
 2023  24   145    62  13.1  -6.0 30.00 24.98  0.89  2.88 225.0  2.64 0.459  3.10  2976     9   573  2395  1207  1188     0  0.00     0     0   427     0 889.1 7.101  17.8     0     0  3000   219  1.07  0.79  68.0  25.2  5.22  0.00  0.00  0.00  0.00  0.00  0.00   2.0  0.00  0.00  0.54  0.63
 2023  25   146    63  14.5  -6.0 30.00 25.28  0.91  2.88 228.8  2.80 0.492  3.29  3147     9   601  2537  1293  1244     0  0.00     0     0   430     0 927.9 7.516  17.0     0     0  3000   217  1.08  0.79  65.6  23.0  4.46  0.00  0.00  0.00  0.00  0.00  0.00   2.0  0.00  0.00  0.54  0.63
 2023  26   147    64  15.7  -6.0 30.00 25.60  0.91  2.88 214.0  2.87 0.511  3.38  3280     9   627  2645  1339  1306     0  0.00     0     0   457     0 990.5 7.987  17.3     0     0  3000   214  1.09  0.79  63.5  23.3  4.18  0.00  0.00  0.00  0.00  0.00  0.00   2.0  0.00  0.00  0.54  0.62
 2023  27   148    65  12.1  -6.0 30.00 25.85  0.92  2.88 171.9  2.94 0.529  3.47  3389     9   648  2733  1386  1346     0  0.00     0     0   466     0  1040 8.368  17.0     0     0  3000   212  1.10  0.80  62.0  30.2  4.90  0.00  0.00  0.00  0.00  0.00  0.00   2.0  0.00  0.00  0.53  0.62
 2023  28   149    66  15.6  -6.0 30.00 26.16  0.92  2.88 192.6  2.99 0.545  3.53  3502     9   671  2822  1423  1399     0  0.00     0     0   489     0  1103 8.873  17.3     0     0  3000   210  1.11  0.80  60.3  24.2  3.55  0.00  0.00  0.00  0.00  0.00  0.00   2.0  0.00  0.00  0.53  0.62
 2023  29   150    67  14.4  -6.0 30.00 26.46  0.93  2.88 234.4  3.14 0.577  3.72  3672     9   699  2964  1508  1456     0  0.00     0     0   493     0  1148 9.358  16.6     0     0  3000   208  1.13  0.80  57.9  19.6  2.55  0.00  0.00  0.00  0.00  0.00  0.00   2.0  0.00  0.00  0.52  0.62
 2023  30   151    68  14.6  -6.0 30.00 26.76  0.94  2.88 211.4  3.27 0.605  3.87  3820     9   724  3087  1581  1506     0  0.00     0     0   496     0  1193 9.866  16.1     0     0  3000   206  1.14  0.80  56.0  20.9  2.36  0.00  0.00  0.00  0.00  0.00  0.00   1.8  0.00  0.00  0.52  0.61
 2023  31   152    69  14.5  -6.0 30.00 27.05  0.94  2.88 218.4  3.40 0.634  4.03  3975     9   750  3216  1658  1558     0  0.00     0     0   500     0  1239 10.39  15.5     0     0  3000   205  1.15  0.80  53.9  19.5  1.97  0.00  0.00  0.00  0.00  0.00  0.00   1.6  0.00  0.00  0.52  0.61
 2023  32   153    70  13.4  -6.0 30.00 27.33  0.95  2.88 164.3  3.47 0.651  4.12  4074     9   769  3296  1701  1595     0  0.00     0     0   506     0  1290 10.89  15.4     0     0  3000   204  1.16  0.80  52.6  26.1  2.33  0.00  0.00  0.00  0.00  0.00  0.00   2.0  0.00  0.00  0.51  0.61
 2023  33   154    71  15.9  -6.0 30.00 27.65  0.95  2.88 226.2  3.57 0.675  4.24  4221     9   796  3416  1760  1656     0  0.00     0     0   525     0  1351 11.50  15.4     0     0  3000   203  1.17  0.80  50.4  17.1  1.43  0.00  0.00  0.00  0.00  0.00  0.00   1.5  0.00  0.00  0.51  0.60
 2023  34   155    72  16.9  -6.0 30.00 28.00  0.96  2.88 225.8  3.83 0.725  4.56  4422     9   822  3591  1899  1692     0  0.00     0     0   486     0  1356 12.17  13.5     0     0  3000   202  1.19  0.80  94.9  31.0  1.19  0.00  0.00  0.09  0.00  0.00  0.00   1.6  0.00  0.00  0.00  0.00
 2023  35   156    73  16.9  -6.0 30.00 28.34  0.97  2.88 236.4  4.08 0.774  4.85  4629     9   850  3770  2034  1737     0  0.00     0     0   457     0  1367 12.87  12.1     0     0  3000   200  1.20  0.80  88.3  27.3  6.23  0.00  0.00  0.00  0.00  0.00  0.00   1.7  0.00  0.00  0.00  0.00
 2023  36   157    74  18.1  -6.0 30.00 28.71  0.97  2.88 238.2  4.31 0.821  5.13  4836     9   877  3951  2168  1783     0  0.00     0     0   434     0  1378 13.64  11.0     0     0  3000   199  1.22  0.81  83.3  24.9  7.48  0.00  0.00  0.00  0.00  0.00  0.00   2.0  0.00  0.00  0.00  0.00
 2023  37   158    75  16.7  -6.0 30.67 29.06  0.98  2.88 229.8  4.53 0.867  5.40  5037     9   902  4127  2295  1832     0  0.00     0     0   414     0  1389 14.37  10.0     0     0  3000   198  1.22  0.81  80.2  25.8  8.21  0.00  0.00  0.00  0.00  0.00  0.00   2.0  0.00  0.00  0.00  0.00
 2023  38   159    76  16.2  -6.0 31.75 29.39  0.98  2.88 250.5  4.76 0.916  5.68  5258     9   929  4321  2427  1894     0  0.00     0     0   399     0  1399 15.10   9.2     0     0  3000   196  1.22  0.82  76.8  23.0  7.39  0.00  0.00  0.00  0.00  0.00  0.00   2.0  0.00  0.00  0.00  0.00
 2023  39   160    77  18.1  -6.0 32.96 29.76  0.99  2.88 258.5  4.99 0.965  5.95  5486     9   956  4521  2556  1965     0  0.00     0     0   389     0  1411 15.94   8.6     0     0  3000   195  1.22  0.82  73.1  20.1  6.09  0.00  0.00  0.00  0.00  0.00  0.00   2.0  0.00  0.00  0.00  0.00
 2023  40   161    78  15.1  -6.0 33.96 30.07  0.99  2.88 262.2  5.21 1.016  6.23  5719     9   983  4727  2687  2040     0  0.00     0     0   380     0  1420 16.67   8.0     0     0  3000   194  1.22  0.82  69.5  19.8  5.04  0.00  0.00  0.00  0.00  0.00  0.00   2.0  0.00  0.00  0.00  0.00
 2023  41   162    79  17.1  -6.0 35.11 30.42  0.99  2.88 231.6  5.37 1.060  6.43  5923     9  1007  4908  2798  2110     0  0.00     0     0   373     0  1431 17.51   7.6     0     0  2919   192  1.22  0.83  66.2  20.5  4.39  0.00  0.00  0.00  0.00  0.00  0.00   2.0  0.00  0.00  0.00  0.00
 2023  42   163    80  14.0  -6.0 36.04 30.70  0.99  2.88  83.9  5.43 1.079  6.51  5991     9  1014  4968  2855  2114     0  0.00     0     0   353     0  1440 18.21   7.1     0     0  2855   190  1.22  0.83  65.1  60.3 10.84  0.00  0.00  0.00  0.00  0.00  0.00   2.0  0.00  0.00  0.00  0.00
 2023  43   164    81  15.7  -6.0 37.09 31.03  0.99  2.88 236.3  5.58 1.124  6.70  6201     9  1037  5156  2960  2195     0  0.00     0     0   351     0  1451 19.01   6.8     0     0  2785   188  1.22  0.84  61.9  19.6  3.47  0.00  0.00  0.00  0.00  0.00  0.00   2.0  0.00  0.00  0.00  0.00
 2023  44   165    82  13.9  -6.0 38.01 31.31  0.99  2.88 159.6  5.68 1.155  6.83  6341     9  1052  5280  3039  2241     0  0.00     0     0   343     0  1460 19.73   6.5     0     0  2724   187  1.22  0.84  59.8  29.4  4.49  0.00  0.00  0.00  0.00  0.00  0.00   2.0  0.00  0.00  0.00  0.00
 2023  45   166    83  13.7  -6.0 38.93 31.59  0.99  2.88 238.2  5.82 1.200  7.02  6554     9  1073  5472  3141  2332     0  0.00     0     0   345     0  1469 20.45   6.3     0     0  2666   185  1.22  0.84  56.7  18.4  2.64  0.00  0.00  0.00  0.00  0.00  0.00   2.0  0.00  0.00  0.00  0.00
 2023  46   167    84  14.2  -6.0 39.87 31.88  0.99  2.88 245.6  5.96 1.246  7.21  6775     9  1095  5671  3241  2429     0  0.00     0     0   350     0  1478 21.21   6.2     0     0  2608   184  1.22  0.85  56.5  17.8  2.14  0.00  0.00  0.00  0.00  0.00  0.00   2.0  0.00  0.00  0.00  0.00
 2023  47   168    85  14.1  -6.0 40.61 32.17  0.99  2.88 271.5  6.11 1.297  7.41  7020     9  1119  5892  3348  2544     0  0.00     0     0   359     0  1487 21.99   6.1     0     0  2551   183  1.22  0.85  53.0  15.1  2.51  0.00  0.00  0.00  0.00  0.00  0.00   2.0  0.00  0.00  0.00  0.00
 2023  48   169    86  12.8  -6.0 41.25 32.17  0.99  2.88 195.9  6.05 1.319  7.37  7203     9  1136  6059  3337  2708     0  0.00     0     0   424    15  1487 22.70   7.0     0     0  2501   181  1.22  0.85  97.2  38.9  2.41  0.00  0.00  0.00  0.00  0.00  0.00   2.0  0.00  0.00  0.00  0.00
 2023  49   170    87  17.4  -6.0 42.12 32.17  0.99  2.88 174.4  5.96 1.336  7.30  7367     9  1150  6208  3317  2857     0  0.00     0     0   488    34  1487 23.69   7.9     0     0  2435   180  1.21  0.86 103.4  42.9 11.96  0.00  0.00  0.00  0.00  0.00  0.00   2.0  0.00  0.00  0.00  0.00
 2023  50   171    88  18.8  -6.0 43.06 32.17  0.99  2.88 152.9  5.87 1.349  7.22  7510     9  1161  6340  3298  2986     0  0.00     0     0   549    56  1487 24.77   8.7     0     0  2365   178  1.21  0.86  90.6  41.7 15.00  0.00  0.00  0.00  0.00  0.00  0.00   2.0  0.00  0.00  0.00  0.00
 2023  51   172    89  18.3  -6.0 43.98 32.17  0.99  2.88 188.5  5.78 1.368  7.15  7687     9  1176  6503  3281  3146     0  0.00     0     0   619    77  1487 25.83   9.6     0     0  2300   176  1.21  0.87  84.4  31.7 12.83  0.00  0.00  0.00  0.00  0.00  0.00   2.0  0.00  0.00  0.00  0.00
 2023  52   173    90  16.3  -6.0 44.79 32.17  0.99  2.88 174.1  5.70 1.386  7.09  7851     9  1188  6655  3266  3293     0  0.00     0     0   684    96  1487 26.79  10.4     0     0  2244   175  1.21  0.87  82.4  35.4 14.84  0.00  0.00  0.00  0.00  0.00  0.00   2.0  0.00  0.00  0.00  0.00
 2023  53   174    91  15.3  -6.0 45.56 32.17  0.99  2.88 286.8  5.63 1.422  7.05  8123     9  1209  6905  3251  3541     0  0.00     0     0   777   114  1487 27.70  11.4     0     0  2192   173  1.21  0.87  78.7  20.9  9.29  0.00  0.00  0.00  0.00  0.00  0.00   2.0  0.00  0.00  0.00  0.00
 2023  54   175    92  16.1  -6.0 46.37 32.17  0.99  2.88 288.0  5.56 1.457  7.01  8396     9  1229  7158  3233  3792     0  0.00     0     0   872   133  1487 28.68  12.4     0     0  2140   172  1.21  0.88  74.7  19.1  8.71  0.00  0.00  0.00  0.00  0.00  0.00   2.0  0.00  0.00  0.00  0.00
 2023  55   176    93  13.1  -6.0 47.02 32.17  0.99  2.88 185.3  5.49 1.479  6.97  8571     9  1241  7321  3221  3952     0  0.00     0     0   936   148  1487 29.49  13.1     0     0  2098   171  1.21  0.88  72.3  30.7 11.56  0.00  0.00  0.00  0.00  0.00  0.00   2.0  0.00  0.00  0.00  0.00
 2023  56   177    94  15.6  -6.0 47.81 32.17  0.99  2.88 182.3  5.42 1.498  6.92  8744     9  1253  7483  3202  4114     0  0.00     0     0  1003   167  1487 30.46  13.7     0     0  2050   169  1.21  0.89  69.9  28.6  9.75  0.00  0.00  0.00  0.00  0.00  0.00   2.0  0.00  0.00  0.00  0.00
 2023  57   178    95  17.0  -6.0 48.65 32.17  0.99  2.88 296.1  5.34 1.535  6.88  9026     9  1272  7746  3183  4377     0  0.00     0     0  1102   187  1487 31.52  14.6     0     0  2000   168  1.21  0.89  65.8  16.2  5.06  0.00  0.00  0.00  0.00  0.00  0.00   2.0  0.00  0.00  0.00  0.00
 2023  58   179    96  16.0  -6.0 49.45 32.17  0.99  2.88 295.9  5.27 1.572  6.84  9309     9  1290  8010  3165  4519     0  0.00   120   120  1201   206  1487 32.54  15.4     0     0  1954   166  1.21  0.89  61.8  15.4  3.95  0.00  0.00  0.00  0.00  0.00  0.00   2.0  0.00  0.00  0.00  0.00
 2023  59   180    97  16.1  -6.0 51.03 32.17  0.99  2.88 261.6  5.20 1.605  6.80  9558     9  1305  8245  3147  4615     0  0.00   258   227  1290   225  1487 33.58  16.1     0     0  1909   165  1.21  0.90  58.2  16.3  3.45  0.00  0.00  0.00  0.00  0.00  0.00   2.0  0.00  0.00  0.00  0.00
 2023  60   181    98  12.6  -6.0 53.56 32.17  0.99  2.88  89.5  5.14 1.607  6.75  9644     9  1309  8326  3138  4626     0  0.00   324   264  1327   238  1487 34.40  16.4     0     0  1875   164  1.21  0.90  57.0  51.5  8.90  0.00  0.00  0.00  0.00  0.00  0.00   2.0  0.00  0.00  0.00  0.00
 2023  61   182    99  14.6  -6.0 56.49 32.17  0.99  2.88 306.7  5.08 1.642  6.73  9939     9  1324  8607  3123  4766     0  0.00   465   392  1427   253  1487 35.36  17.1     0     0  1836   163  1.21  0.92  53.1  13.4  2.32  0.00  0.00  0.00  0.00  0.00  0.00   2.0  0.00  0.00  0.00  0.00
 2023  62   183   100  14.9  -6.0 59.47 32.17  0.99  2.88 313.6  5.02 1.680  6.70 10243     9  1336  8898  3109  4883     0  0.00   638   524  1530   269  1487 36.35  17.7     0     0  1798   162  1.21  0.93  48.9  11.9  1.75  0.00  0.00  0.00  0.00  0.00  0.00   2.0  0.00  0.00  0.00  0.00
 2023  63   184   101  14.5  -6.0 65.91 32.17  0.99  2.88 314.8  4.97 1.718  6.69 10549     9  1346  9195  3096  4999     0  0.00   817   659  1634   284  1487 37.31  18.3     0     0  1762   160  1.21  0.94  44.7  10.8  1.33  0.00  0.00  0.00  0.00  0.00  0.00   2.0  0.00  0.00  0.00  0.00
 2023  64   185   102  15.5  -6.0 70.56 32.17  0.98  2.83 314.1  4.91 1.757  6.66 10857     9  1353  9495  3080  5115     0  0.00  1000   796  1740   300  1487 38.36  18.9     0     0  1725   159  1.21  0.95  40.4   9.3  0.99  0.03  0.01  0.24  0.00  0.00  0.00   2.0  0.00  0.00  0.00  0.00
 2023  65   186   103  16.9  -6.0 71.86 32.17  0.98  2.19 233.6  4.84 1.781  6.62 11084     9  1360  9716  3063  5178    11  0.00  1146   907  1812   317  1487 39.50  19.3 16459 .0001  1686   158  1.21  0.95  37.1   8.7  0.76  0.48  0.24  0.42  0.00  0.00  0.00   2.0  0.00  0.00  0.00  0.00
 2023  66   187   104  16.9  -6.0 73.16 32.17  0.98  2.29 190.2  4.77 1.766  6.54 11270     9  1363  9899  3046  5255    48  0.00  1215   944  1977   335  1487 40.64  20.8 16459 .0003  1648   157  1.21  0.96  87.0  26.3  0.80  0.41  0.20  0.39  0.00  0.00  0.00   2.0  0.00  0.00  0.00  0.00
 2023  67   188   105  18.4  -6.0 74.57 32.17  0.98  2.88 279.8  4.70 1.751  6.45 11547     9  1365 10173  3027  5409   116  0.01  1268  1012  2202   354  1487 41.90  22.7 16459 .0007  1608   155  1.21  0.98  82.9  20.8  6.07  0.00  0.00  0.00  0.00  0.00  0.00   2.0  0.00  0.00  0.00  0.00
 2023  68   189   106  19.7  -6.0 76.09 32.17  0.98  2.88 304.9  4.63 1.734  6.36 11848     9  1367 10472  3005  5553   221  0.02  1318  1117  2417   375  1487 43.24  24.5 16459 .0013  1567   154  1.21  0.98  78.4  17.6  8.10  0.00  0.00  0.00  0.00  0.00  0.00   2.0  0.00  0.00  0.00  0.00
 2023  69   190   107  19.4  -6.0 77.58 32.17  0.98  2.88 317.2  4.55 1.718  6.27 12161     9  1370 10783  2985  5680   359  0.03  1363  1255  2610   396  1487 44.57  26.0 16459 .0022  1528   153  1.21  0.98  73.7  16.0  7.99  0.00  0.00  0.00  0.00  0.00  0.00   2.0  0.00  0.00  0.00  0.00
 2023  70   191   108  19.6  -6.0 79.09 32.17  0.98  2.88 312.6  4.48 1.703  6.18 12470     9  1372 11089  2964  5778   533  0.05  1398  1429  2763   417  1487 45.91  27.3 16459 .0032  1490   151  1.21  0.98  69.1  15.2  7.17  0.00  0.00  0.00  0.00  0.00  0.00   2.0  0.00  0.00  0.00  0.00
 2023  71   192   109  22.8  -6.0 80.20 32.17  0.98  2.88 310.7  4.40 1.685  6.08 12777     9  1374 11394  2937  5824   775  0.07  1417  1671  2851   441  1487 47.48  28.0 16459 .0047  1447   150  1.21  0.98  64.2  13.4  4.89  0.00  0.00  0.00  0.00  0.00  0.00   2.0  0.00  0.18  0.00  0.00
 2023  72   193   110  22.0  -6.0 80.59 32.17  0.98  2.88 317.2  4.36 1.668  6.02 13090     9  1376 11705  2939  5854  1037  0.09  1426  1933  2907   449  1487 48.99  28.4 16459 .0063  1408   148  1.21  0.98  59.3  12.4  3.42  0.00  0.00  0.00  0.00  0.00  0.00   2.0  0.00  0.13  0.00  0.00
 2023  73   194   111  19.8  -6.0 80.95 32.17  0.97  2.88 325.4  4.32 1.653  5.97 13411     9  1379 12024  2942  5911  1272  0.11  1444  2168  2997   455  1487 50.35  29.1 16459 .0077  1374   147  1.21  0.98  54.4  11.5  2.46  0.00  0.00  0.00  0.00  0.00  0.00   2.0  0.00  0.00  0.00  0.00
 2023  74   195   112  19.5  -6.0 81.30 32.17  0.97  2.88 285.9  4.28 1.639  5.92 13693     9  1381 12304  2943  5942  1504  0.12  1454  2400  3052   462  1487 51.69  29.5 16459 .0091  1343   146  1.21  0.98  50.1  12.1  2.03  0.00  0.00  0.00  0.00  0.00  0.00   2.0  0.00  0.00  0.00  0.00
 2023  75   196   113  20.5  -6.0 81.67 32.17  0.97  2.88 261.9  4.25 1.624  5.87 13952     9  1383 12560  2944  5946  1747  0.14  1455  2644  3072   469  1487 53.11  29.7 16459 .0106  1310   144  1.21  0.98  46.1  12.1  1.66  0.00  0.00  0.00  0.00  0.00  0.00   2.0  0.00  0.03  0.00  0.00
 2023  76   197   114  20.0  -6.0 82.03 32.17  0.97  2.88 111.9  4.21 1.610  5.82 14061     9  1383 12670  2945  5843  1986  0.16  1421  2882  2950   475  1487 54.49  28.9 16459 .0121  1280   143  1.21  0.98  98.8  62.1  3.07  0.00  0.00  0.00  0.00  0.00  0.00   2.0  0.00  0.00  0.00  0.00
 2023  77   198   115  19.0  -6.0 82.38 32.17  0.97  2.88 304.8  4.18 1.596  5.77 14362     9  1385 12969  2946  5891  2212  0.17  1437  3109  3029   482  1487 55.81  29.5 16459 .0134  1252   142  1.20  0.98 120.6  28.1  7.11  0.00  0.00  0.00  0.00  0.00  0.00   2.0  0.00  0.00  0.00  0.00
 2023  78   199   116  19.0  -6.0 82.72 32.17  0.97  2.88 319.9  4.14 1.583  5.73 14678     9  1388 13282  2947  5952  2439  0.18  1456  3335  3122   488  1487 57.13  30.1 16459 .0148  1225   141  1.20  0.98 104.9  23.1  8.50  0.00  0.00  0.00  0.00  0.00  0.00   2.0  0.00  0.00  0.00  0.00
 2023  79   200   117  19.0  -6.0 83.06 32.17  0.97  2.88 316.8  4.11 1.571  5.68 14991     9  1390 13593  2948  6010  2666  0.20  1475  3562  3212   495  1487 58.45  30.8 16459 .0162  1199   139  1.20  0.98  87.7  19.6  8.46  0.00  0.00  0.00  0.00  0.00  0.00   2.0  0.00  0.00  0.00  0.00
 2023  80   201   118  20.1  -6.0 83.43 32.17  0.97  2.88 313.8  4.08 1.558  5.64 15301     9  1393 13900  2948  6056  2905  0.21  1490  3801  3288   502  1487 59.85  31.3 16459 .0176  1173   138  1.20  0.98  81.5  18.3  9.16  0.00  0.00  0.00  0.00  0.00  0.00   2.0  0.00  0.01  0.00  0.00
 2023  81   202   119  20.2  -6.0 83.79 32.17  0.97  2.88 313.5  4.04 1.545  5.59 15611     9  1395 14208  2948  6101  3146  0.22  1505  4042  3361   509  1487 61.26  31.8 16459 .0191  1148   137  1.20  0.98  76.8  16.8  8.94  0.00  0.00  0.00  0.00  0.00  0.00   2.0  0.00  0.02  0.00  0.00
 2023  82   203   120  19.6  -6.0 84.14 32.17  0.97  2.88 325.7  4.01 1.532  5.54 15933     9  1397 14527  2949  6160  3379  0.23  1524  4275  3454   515  1487 62.62  32.5 16459 .0205  1124   136  1.20  0.98  72.1  15.5  7.96  0.00  0.00  0.00  0.00  0.00  0.00   2.0  0.00  0.00  0.00  0.00
 2023  83   204   121  17.6  -6.0 84.46 32.17  0.97  2.88 347.7  3.98 1.521  5.50 16276     9  1400 14867  2950  6254  3588  0.24  1554  4484  3591   521  1487 63.85  33.4 16459 .0218  1104   135  1.20  0.98  67.2  14.1  5.74  0.00  0.00  0.00  0.00  0.00  0.00   2.0  0.00  0.00  0.00  0.00
 2023  84   205   122  17.1  -6.0 84.77 32.17  0.97  2.88 333.5  3.96 1.511  5.47 16606     9  1403 15194  2950  6343  3791  0.25  1582  4688  3721   527  1487 65.05  34.2 16459 .0230  1085   134  1.20  0.98  62.5  13.8  4.49  0.00  0.00  0.00  0.00  0.00  0.00   2.0  0.00  0.00  0.00  0.00
 2023  85   206   123  17.5  -6.0 85.09 32.17  0.96  2.88 336.0  3.93 1.501  5.43 16938     9  1406 15523  2950  6430  4000  0.26  1611  4896  3848   534  1487 66.28  35.0 16459 .0243  1066   133  1.20  0.98  57.6  12.4  3.21  0.00  0.00  0.00  0.00  0.00  0.00   2.0  0.00  0.00  0.00  0.00
 2023  86   207   124  17.5  -6.0 85.40 32.17  0.96  2.88 260.8  3.76 1.490  5.25 17195     9  1408 15779  2843  6481  4208  0.27  1644  5104  3963   602  1487 67.51  36.1 16459 .0256  1048   132  1.20  0.98  92.8  25.8  3.01  0.00  0.00  0.00  0.00  0.00  0.00   2.0  0.00  0.00  0.00  0.00
 2023  87   208   125  18.8  -6.0 85.74 32.17  0.95  2.88 311.7  3.59 1.480  5.07 17503     9  1410 16085  2735  6560  4431  0.28  1687  5327  4115   671  1487 68.83  37.5 16459 .0269  1029   131  1.20  0.98  85.4  19.4  8.43  0.00  0.00  0.00  0.00  0.00  0.00   2.0  0.00  0.00  0.00  0.00
 2023  88   209   126  18.0  -6.0 86.06 32.17  0.95  2.88 320.6  3.41 1.470  4.88 17820     9  1413 16399  2618  6654  4645  0.28  1736  5542  4289   745  1487 70.10  39.0 16459 .0282  1012   130  1.20  0.98  80.3  18.0  9.30  0.00  0.00  0.00  0.00  0.00  0.00   2.0  0.00  0.00  0.00  0.00
 2023  89   210   127  19.3  -6.0 86.41 32.17  0.94  2.88 314.0  3.24 1.459  4.70 18130     9  1415 16706  2505  6731  4875  0.29  1779  5771  4438   816  1487 71.47  40.3 16459 .0296   994   129  1.20  0.98  75.6  17.0  9.30  0.00  0.00  0.00  0.00  0.00  0.00   2.0  0.00  0.00  0.00  0.00
[...]
 2023  37   158    65  16.7  -6.0 30.70 23.46  0.71  0.84  48.8  1.47 0.241  1.71  1566    15   366  1185   634   551     0  0.00     0     0   155     0 575.5 6.348  13.1     0     0  1092   232  1.05  0.74  39.5  18.8  0.29  1.00  0.71  0.78  0.00  0.00  0.00   2.0  0.00  0.00  0.00  0.00
 2023  38   159    66  16.2  -6.0 31.78 23.76  0.72  0.77  48.9  1.49 0.246  1.74  1597    15   373  1209   649   560     0  0.00     0     0   154     0 587.8 6.644  12.8     0     0  1092   230  1.07  0.74  39.9  17.6  0.27  1.00  0.73  0.79  0.00  0.00  0.00   2.0  0.00  0.00  0.00  0.00
 2023  39   160    67  18.1  -6.0 32.99 24.09  0.72  0.70  45.9  1.51 0.251  1.76  1625    15   380  1230   662   568     0  0.00     0     0   155     0 600.6 6.982  12.6     0     0  1092   228  1.08  0.74  40.4  16.4  0.24  1.00  0.76  0.81  0.00  0.00  0.00   2.0  0.00  0.00  0.00  0.00
 2023  40   161    68  15.1  -6.0 33.99 24.37  0.73  0.71  47.7  1.52 0.257  1.78  1655    15   386  1253   675   578     0  0.00     0     0   155     0 613.0 7.269  12.4     0     0  1092   226  1.09  0.75  40.8  17.2  0.25  1.00  0.75  0.81  0.00  0.00  0.00   2.0  0.00  0.00  0.00  0.00
 2023  41   162    69  17.1  -6.0 35.14 24.69  0.73  0.76  45.2  1.53 0.262  1.79  1683    15   393  1275   686   588     0  0.00     0     0   156     0 625.9 7.600  12.2     0     0  1065   222  1.11  0.75  41.3  18.9  0.27  1.00  0.73  0.80  0.00  0.00  0.00   2.0  0.00  0.00  0.00  0.00
 2023  42   163    70  14.0  -6.0 36.07 24.95  0.74  2.27  48.6  1.57 0.272  1.84  1724    15   398  1311   714   597     0  0.00     0     0   148     0 628.9 7.875  11.3     0     0  1045   220  1.12  0.81  41.6  57.1  0.79  0.42  0.21  0.39  0.00  0.00  0.00   2.0  0.00  0.00  0.00  0.00
 2023  43   164    71  15.7  -6.0 37.12 25.24  0.74  0.75  45.8  1.57 0.277  1.84  1752    15   404  1333   723   610     0  0.00     0     0   151     0 642.1 8.188  11.3     0     0  1022   217  1.13  0.76  42.0  19.4  0.26  1.00  0.74  0.80  0.00  0.00  0.00   2.0  0.00  0.00  0.00  0.00
 2023  44   165    72  13.9  -6.0 38.04 25.50  0.74  1.16  47.6  1.57 0.282  1.85  1782    15   410  1357   733   624     0  0.00     0     0   153     0 655.0 8.469  11.3     0     0  1002   214  1.14  0.78  42.3  30.4  0.40  1.00  0.60  0.69  0.00  0.00  0.00   2.0  0.00  0.00  0.00  0.00
 2023  45   166    73  13.7  -6.0 38.96 25.75  0.74  0.76  46.6  1.57 0.287  1.86  1811    15   416  1380   741   638     0  0.00     0     0   156     0 668.0 8.750  11.3     0     0   983   212  1.16  0.77  42.5  20.3  0.26  1.00  0.74  0.80  0.00  0.00  0.00   2.0  0.00  0.00  0.00  0.00
 2023  46   167    74  14.2  -6.0 39.90 26.02  0.74  0.73  46.2  1.57 0.291  1.86  1840    15   423  1402   749   653     0  0.00     0     0   159     0 681.2 9.044  11.3     0     0   965   209  1.17  0.77  43.6  20.2  0.25  1.00  0.75  0.80  0.00  0.00  0.00   2.0  0.00  0.00  0.00  0.00
 2023  47   168    75  14.1  -6.0 40.63 26.28  0.74  0.69  48.0  1.57 0.297  1.86  1870    15   429  1426   757   669     0  0.00     0     0   162     0 694.5 9.343  11.3     0     0   946   207  1.18  0.77  43.2  18.1  0.24  1.00  0.76  0.82  0.00  0.00  0.00   2.0  0.00  0.00  0.00  0.00
 2023  48   169    76  12.8  -6.0 41.27 26.28  0.73  0.92  46.2  1.52 0.297  1.82  1912    15   434  1462   740   709     0  0.00     0     0   186    14 694.5 9.618  12.8     0     0   930   205  1.19  0.79  43.4  25.6  0.32  1.00  0.68  0.76  0.00  0.00  0.00   2.0  0.00  0.00  0.00  0.00
 2023  49   170    77  17.4  -6.0 42.14 26.28  0.71  0.96  42.3  1.47 0.296  1.76  1950    15   439  1495   720   747     0  0.00     0     0   211    28 694.5 9.996  14.4     0     0   909   204  1.20  0.79  50.2  31.3  0.33  1.00  0.67  0.74  0.00  0.00  0.00   2.0  0.00  0.00  0.00  0.00
 2023  50   171    78  18.8  -6.0 43.08 26.28  0.71  2.88 109.7  1.45 0.310  1.76  2053    15   448  1590   716   841     0  0.00     0     0   244    33 694.5 10.41  15.7     0     0   886   202  1.20  0.86  48.1  33.5  1.37  0.00  0.00  0.00  0.00  0.00  0.00   2.0  0.00  0.00  0.00  0.00
 2023  51   172    79  18.3  -6.0 44.00 26.28  0.69  1.63  76.2  1.40 0.314  1.71  2124    15   456  1653   697   908     0  0.00     0     0   277    47 694.5 10.82  17.3     0     0   865   200  1.20  0.82  46.3  26.7  0.57  0.87  0.43  0.56  0.00  0.00  0.00   2.0  0.00  0.00  0.00  0.00
 2023  52   173    80  16.3  -6.0 44.81 26.28  0.68  1.52  64.5  1.35 0.317  1.67  2183    15   462  1706   680   965     0  0.00     0     0   307    61 694.5 11.19  18.6     0     0   847   199  1.20  0.82  45.1  30.3  0.53  0.94  0.47  0.59  0.00  0.00  0.00   2.0  0.00  0.00  0.00  0.00
 2023  53   174    81  15.3  -6.0 45.58 26.28  0.67  0.88  60.1  1.31 0.320  1.63  2238    15   469  1754   663  1017     0  0.00     0     0   334    74 694.5 11.55  19.9     0     0   831   197  1.20  0.80  44.0  18.6  0.30  1.00  0.70  0.77  0.00  0.00  0.00   2.0  0.00  0.00  0.00  0.00
 2023  54   175    82  16.1  -6.0 46.39 26.28  0.66  0.80  54.2  1.26 0.321  1.58  2288    15   475  1798   645  1065     0  0.00     0     0   360    87 694.5 11.92  21.1     0     0   814   196  1.20  0.81  43.3  18.0  0.28  1.00  0.72  0.79  0.00  0.00  0.00   2.0  0.00  0.00  0.00  0.00
 2023  55   176    83  13.1  -6.0 47.05 26.28  0.65  1.30  55.5  1.22 0.324  1.55  2339    15   480  1844   629  1115     0  0.00     0     0   386    99 694.5 12.24  22.1     0     0   800   194  1.20  0.83  42.6  30.1  0.45  1.00  0.55  0.65  0.00  0.00  0.00   2.0  0.00  0.00  0.00  0.00
 2023  56   177    84  15.6  -6.0 47.83 26.28  0.63  1.23  50.8  1.18 0.325  1.51  2386    15   485  1886   612  1162     0  0.00     0     0   411   112 694.5 12.61  23.2     0     0   785   193  1.20  0.83  41.9  29.1  0.43  1.00  0.57  0.67  0.00  0.00  0.00   2.0  0.00  0.00  0.00  0.00
 2023  57   178    85  17.0  -6.0 48.68 26.28  0.62  0.73  48.1  1.14 0.326  1.47  2430    15   490  1925   595  1206     0  0.00     0     0   435   124 694.5 13.02  24.2     0     0   769   191  1.20  0.81  41.3  17.7  0.25  1.00  0.75  0.80  0.00  0.00  0.00   2.0  0.00  0.00  0.00  0.00
 2023  58   179    86  16.0  -6.0 49.48 26.28  0.61  0.73  47.2  1.10 0.328  1.43  2474    15   495  1963   579  1231     0  0.00    18    18   459   136 694.5 13.42  25.1     0     0   754   190  1.20  0.82  40.7  18.0  0.25  1.00  0.75  0.80  0.00  0.00  0.00   2.0  0.00  0.00  0.00  0.00
 2023  59   180    87  16.1  -6.0 51.12 26.28  0.59  0.82  45.7  1.06 0.329  1.39  2516    15   499  2001   562  1245     0  0.00    45    35   482   148 694.5 13.81  26.0     0     0   740   189  1.20  0.83  40.1  20.4  0.28  1.00  0.72  0.78  0.00  0.00  0.00   2.0  0.00  0.00  0.00  0.00
 2023  60   181    88  12.6  -6.0 53.65 26.28  0.59  2.62  49.0  1.05 0.334  1.38  2562    15   502  2045   561  1259     0  0.00    75    55   498   150 694.5 14.13  26.3     0     0   729   187  1.20  0.90  39.6  66.2  0.91  0.18  0.09  0.30  0.00  0.00  0.00   2.0  0.00  0.00  0.00  0.00
 2023  61   182    89  14.6  -6.0 56.58 26.28  0.58  0.71  45.5  1.02 0.339  1.36  2605    15   506  2083   547  1272     0  0.00   104    72   519   160 694.5 14.50  27.0     0     0   716   186  1.20  0.84  39.0  18.3  0.25  1.00  0.75  0.81  0.00  0.00  0.00   2.0  0.00  0.00  0.00  0.00
 2023  62   183    90  14.9  -6.0 59.56 26.28  0.57  0.68  43.6  0.99 0.343  1.33  2645    15   509  2121   534  1285     0  0.00   132    89   540   170 694.5 14.87  27.7     0     0   704   185  1.20  0.85  38.5  17.7  0.24  1.00  0.76  0.82  0.00  0.00  0.00   2.0  0.00  0.00  0.00  0.00
 2023  63   184    91  14.5  -6.0 66.13 26.28  0.56  0.67  42.3  0.96 0.347  1.30  2685    15   513  2157   520  1297     0  0.00   160   106   561   180 694.5 15.24  28.4     0     0   692   184  1.20  0.87  37.9  17.7  0.23  1.00  0.77  0.82  0.00  0.00  0.00   2.0  0.00  0.00  0.00  0.00
 2023  64   185    92  15.5  -6.0 70.60 26.28  0.54  0.64  40.2  0.93 0.350  1.28  2723    15   515  2193   507  1310     0  0.00   187   122   581   189 694.5 15.64  29.0     0     0   680   182  1.20  0.88  37.4  17.1  0.22  1.00  0.78  0.83  0.00  0.00  0.00   2.0  0.00  0.00  0.00  0.00
 2023  65   186    93  16.9  -6.0 71.90 26.28  0.53  0.65  38.3  0.89 0.354  1.25  2759    15   517  2227   494  1319     3  0.00   213   140   598   199 694.5 16.07  29.5  4027 .0001   667   181  1.20  0.89  36.9  17.5  0.23  1.00  0.77  0.83  0.00  0.00  0.00   2.0  0.00  0.00  0.00  0.00
 2023  66   187    94  16.9  -6.0 73.19 26.28  0.52  0.83  37.4  0.86 0.351  1.22  2795    15   519  2261   481  1332    12  0.01   228   149   633   208 694.5 16.51  31.0  4027 .0003   655   180  1.20  0.91  36.5  22.8  0.29  1.00  0.71  0.78  0.00  0.00  0.00   2.0  0.00  0.00  0.00  0.00
 2023  67   188    95  18.4  -6.0 74.61 26.28  0.51  0.69  35.5  0.83 0.348  1.18  2829    15   520  2294   467  1348    28  0.01   233   166   659   218 694.5 16.99  32.2  4027 .0007   642   178  1.20  0.92  36.0  19.1  0.24  1.00  0.76  0.82  0.00  0.00  0.00   2.0  0.00  0.00  0.00  0.00
 2023  68   189    96  19.7  -6.0 76.12 26.28  0.49  0.61  33.6  0.80 0.345  1.15  2861    15   520  2325   454  1355    53  0.02   236   191   675   228 694.5 17.50  33.0  4027 .0013   628   177  1.20  0.94  35.5  17.3  0.21  1.00  0.79  0.84  0.00  0.00  0.00   2.0  0.00  0.00  0.00  0.00
 2023  69   190    97  19.4  -6.0 77.62 26.28  0.48  0.59  32.9  0.77 0.343  1.12  2893    15   521  2357   441  1355    87  0.04   237   224   682   237 694.5 18.00  33.6  4027 .0021   616   175  1.20  0.96  35.1  16.9  0.21  1.00  0.79  0.84  0.00  0.00  0.00   2.0  0.00  0.00  0.00  0.00
 2023  70   191    98  19.6  -6.0 79.13 26.28  0.47  0.60  31.9  0.74 0.340  1.08  2924    15   521  2388   428  1349   128  0.05   237   266   681   246 694.5 18.52  33.8  4027 .0032   603   174  1.20  0.97  34.7  17.4  0.21  1.00  0.79  0.84  0.00  0.00  0.00   2.0  0.00  0.00  0.00  0.00
 2023  71   192    99  22.8  -6.0 80.18 26.28  0.45  0.57  29.3  0.71 0.337  1.05  2953    15   521  2417   414  1327   186  0.08   234   324   661   256 694.5 19.11  33.5  4027 .0046   589   172  1.20  0.98  34.3  16.7  0.20  1.00  0.80  0.85  0.00  0.00  0.00   2.0  0.00  0.18  0.00  0.00
 2023  72   193   100  22.0  -6.0 80.54 26.28  0.45  0.56  29.0  0.69 0.334  1.03  2981    15   520  2445   406  1299   249  0.10   229   386   634   262 694.5 19.68  32.8  4027 .0062   576   171  1.20  0.98  33.9  17.0  0.20  1.00  0.80  0.85  0.00  0.00  0.00   2.0  0.00  0.13  0.00  0.00
 2023  73   194   101  19.8  -6.0 80.86 26.28  0.44  0.57  29.3  0.68 0.331  1.01  3009    15   520  2474   398  1278   305  0.12   225   442   612   268 694.5 20.20  32.2  4027 .0076   565   169  1.20  0.98  33.5  17.4  0.20  1.00  0.80  0.85  0.00  0.00  0.00   2.0  0.00  0.00  0.00  0.00
 2023  74   195   102  19.5  -6.0 81.17 26.28  0.43  0.65  28.8  0.66 0.328  0.99  3037    15   520  2502   391  1256   360  0.14   222   497   591   274 694.5 20.70  31.6  4027 .0089   555   168  1.20  0.98  33.1  20.1  0.22  1.00  0.78  0.83  0.00  0.00  0.00   2.0  0.00  0.00  0.00  0.00
 2023  75   196   103  20.5  -6.0 81.50 26.28  0.42  0.69  27.8  0.64 0.326  0.96  3064    15   520  2529   383  1232   418  0.17   217   555   566   279 694.5 21.24  30.9  4027 .0104   544   167  1.20  0.98  32.7  21.9  0.24  1.00  0.76  0.81  0.00  0.00  0.00   2.0  0.00  0.03  0.00  0.00
 2023  76   197   104  20.0  -6.0 81.82 26.28  0.41  1.66  27.8  0.62 0.323  0.94  3091    15   520  2556   376  1208   475  0.19   213   612   542   285 694.5 21.76  30.2  4027 .0118   534   165  1.20  0.98  43.3  71.0  0.58  0.85  0.42  0.56  0.00  0.00  0.00   2.0  0.00  0.00  0.00  0.00
 2023  77   198   105  19.0  -6.0 82.13 26.28  0.41  2.88 128.6  0.62 0.321  0.94  3219    15   521  2682   376  1267   529  0.20   225   666   615   286 694.5 22.25  32.9  4027 .0131   525   164  1.20  0.98  69.8  42.3  2.79  0.00  0.00  0.00  0.00  0.00  0.00   2.0  0.00  0.00  0.00  0.00
 2023  78   199   106  19.0  -6.0 82.44 26.28  0.41  2.88 134.4  0.61 0.318  0.93  3351    15   522  2814   376  1331   582  0.21   239   720   693   286 694.5 22.75  35.6  4027 .0145   516   163  1.20  0.98  65.4  37.9  6.84  0.00  0.00  0.00  0.00  0.00  0.00   2.0  0.00  0.00  0.00  0.00
 2023  79   200   107  19.0  -6.0 82.74 26.28  0.40  2.88 132.5  0.61 0.316  0.92  3482    15   523  2944   376  1393   636  0.22   252   774   770   287 694.5 23.24  38.1  4027 .0158   507   162  1.20  0.98  63.3  37.7  7.30  0.00  0.00  0.00  0.00  0.00  0.00   2.0  0.00  0.00  0.00  0.00
 2023  80   201   108  20.1  -6.0 83.07 26.28  0.40  2.88 130.7  0.60 0.314  0.92  3611    15   524  3072   376  1451   693  0.23   264   831   842   288 694.5 23.77  40.3  4027 .0172   499   161  1.20  0.98  61.5  37.1  6.99  0.00  0.00  0.00  0.00  0.00  0.00   2.0  0.00  0.01  0.00  0.00
 2023  81   202   109  20.2  -6.0 83.39 26.28  0.40  2.88 130.0  0.60 0.312  0.91  3740    15   525  3199   376  1508   751  0.23   276   888   913   289 694.5 24.30  42.3  4027 .0186   490   159  1.20  0.98  59.7  35.4  5.34  0.00  0.00  0.00  0.00  0.00  0.00   2.0  0.00  0.02  0.00  0.00
 2023  82   203   110  19.6  -6.0 83.71 26.28  0.40  2.88 134.4  0.60 0.309  0.91  3873    15   526  3331   376  1570   806  0.24   289   944   990   290 694.5 24.82  44.3  4027 .0200   483   158  1.20  0.98  57.9  33.9  4.23  0.00  0.00  0.00  0.00  0.00  0.00   2.0  0.00  0.00  0.00  0.00
 2023  83   204   111  17.6  -6.0 83.99 26.28  0.40  2.88 142.8  0.59 0.307  0.90  4014    15   527  3471   376  1644   856  0.25   304   994  1081   291 694.5 25.28  46.5  4027 .0213   476   157  1.20  0.98  56.1  32.1  3.46  0.00  0.00  0.00  0.00  0.00  0.00   2.0  0.00  0.00  0.00  0.00
 2023  84   205   112  17.1  -6.0 84.27 26.28  0.39  2.88 136.5  0.59 0.306  0.89  4149    15   529  3605   376  1714   905  0.25   319  1042  1167   291 694.5 25.73  48.4  4027 .0225   470   156  1.20  0.98  54.3  32.9  2.90  0.00  0.00  0.00  0.00  0.00  0.00   2.0  0.00  0.00  0.00  0.00
 2023  85   206   113  17.5  -6.0 84.55 26.28  0.39  2.88 137.0  0.58 0.304  0.89  4284    15   530  3739   376  1783   954  0.26   333  1092  1252   292 694.5 26.19  50.2  4027 .0237   463   155  1.20  0.98  52.6  31.2  2.24  0.00  0.00  0.00  0.00  0.00  0.00   2.0  0.00  0.00  0.00  0.00
 2023  86   207   114  17.5  -6.0 84.83 26.28  0.39  2.88 105.9  0.58 0.302  0.88  4389    15   531  3843   376  1828  1004  0.26   342  1141  1307   293 694.5 26.66  51.3  4027 .0249   457   154  1.20  0.98  51.2  39.2  2.30  0.00  0.00  0.00  0.00  0.00  0.00   2.0  0.00  0.00  0.00  0.00
 2023  87   208   115  18.8  -6.0 85.13 26.28  0.39  2.88 126.7  0.58 0.300  0.88  4514    15   532  3967   376  1886  1057  0.27   354  1194  1379   294 694.5 27.15  52.7  4027 .0262   451   154  1.20  0.98  49.5  30.9  1.57  0.00  0.00  0.00  0.00  0.00  0.00   2.0  0.00  0.00  0.00  0.00
 2023  88   209   116  18.0  -6.0 85.42 26.28  0.38  2.88 130.6  0.55 0.298  0.85  4643    15   533  4095   363  1952  1108  0.27   370  1245  1464   302 694.5 27.63  54.5  4027 .0275   446   153  1.20  0.98  47.9  29.3  1.26  0.00  0.00  0.03  0.00  0.00  0.00   2.0  0.00  0.00  0.00  0.00
 2023  89   210   117  19.3  -6.0 85.74 26.28  0.36  2.88 124.8  0.53 0.296  0.83  4766    15   534  4218   351  2011  1163  0.28   383  1300  1540   310 694.5 28.15  56.1  4027 .0289   440   152  1.20  0.98  46.2  29.0  1.06  0.00  0.00  0.19  0.00  0.00  0.00   2.0  0.00  0.00  0.00  0.00
 2023  90   211   118  18.7  -6.0 86.04 26.28  0.35  2.41 111.9  0.51 0.294  0.80  4877    15   534  4327   337  2061  1216  0.28   395  1353  1605   319 694.5 28.64  57.5  4027 .0302   434   151  1.20  0.98  44.8  26.8  0.84  0.32  0.16  0.35  0.00  0.00  0.00   2.0  0.00  0.00  0.00  0.00
 2023  91   212   119  19.4  -6.0 86.35 26.28  0.34  2.16  94.0  0.49 0.293  0.78  4970    15   535  4419   324  2095  1270  0.29   403  1408  1651   327 694.5 29.16  58.5  4027 .0315   429   150  1.20  0.98  43.5  27.2  0.75  0.50  0.25  0.42  0.00  0.00  0.00   2.0  0.00  0.00  0.00  0.00
 2023  92   213   120  20.8  -6.0 86.68 26.28  0.32  1.98  80.8  0.46 0.291  0.75  5049    15   535  4499   310  2114  1329  0.30   409  1467  1680   336 694.5 29.72  59.3  4027 .0330   423   149  1.20  0.98  42.4  27.6  0.69  0.63  0.31  0.47  0.00  0.00  0.00   2.0  0.00  0.06  0.00  0.00
 2023  93   214   121  18.6  -6.0 86.98 26.28  0.31  2.01  75.5  0.44 0.289  0.73  5124    15   536  4573   295  2135  1382  0.30   415  1520  1710   345 694.5 30.22  60.1  4027 .0343   418   148  1.20  0.98  41.5  30.6  0.70  0.60  0.30  0.46  0.00  0.00  0.00   2.0  0.00  0.00  0.00  0.00
 2023  94   215   122  17.1  -6.0 87.26 26.28  0.30  1.83  72.1  0.41 0.287  0.70  5195    15   536  4643   281  2157  1431  0.31   421  1568  1741   353 694.5 30.68  60.9  4027 .0355   414   147  1.20  0.98  40.6  29.9  0.64  0.72  0.36  0.51  0.00  0.00  0.00   2.0  0.00  0.00  0.00  0.00
 2023  95   216   123  15.9  -6.0 87.52 26.28  0.28  1.84  68.1  0.39 0.286  0.68  5262    15   537  4710   269  2178  1475  0.31   426  1613  1771   361 694.5 31.10  61.6  4027 .0366   410   146  1.20  0.98  39.7  31.9  0.64  0.72  0.36  0.51  0.00  0.00  0.00   2.0  0.00  0.00  0.00  0.00
 2023  96   217   124  15.9  -6.0 87.77 26.28  0.27  1.68  62.4  0.37 0.285  0.65  5324    15   537  4771   252  2196  1520  0.32   432  1657  1798   371 694.5 31.53  62.4  4027 .0377   406   145  1.20  0.98  39.0  30.8  0.58  0.83  0.42  0.55  0.00  0.00  0.00   2.0  0.00  0.00  0.00  0.00
 2023  97   218   125  17.3  -6.0 88.05 26.28  0.25  1.62  56.8  0.34 0.283  0.62  5379    15   537  4827   235  2206  1569  0.33   436  1706  1815   381 694.5 31.99  63.1  4027 .0390   402   145  1.20  0.98  38.3  31.2  0.56  0.87  0.44  0.57  0.00  0.00  0.00   2.0  0.00  0.00  0.00  0.00
 2023  98   219   126  19.2  -6.0 88.36 26.28  0.23  1.55  51.3  0.31 0.280  0.59  5430    15   537  4877   217  2202  1623  0.33   439  1761  1821   396 694.5 32.51  63.7  4027 .0403   398   144  1.20  0.98  37.6  31.1  0.54  0.93  0.46  0.59  0.00  0.00  0.00   2.0  0.00  0.00  0.00  0.00
 2023  99   220   127  20.0  -6.0 88.68 26.28  0.21  1.54  47.7  0.28 0.278  0.56  5477    15   537  4924   198  2193  1680  0.34   442  1817  1822   411 694.5 33.05  64.3  4027 .0417   394   143  1.20  0.98  37.0  32.2  0.53  0.93  0.47  0.59  0.00  0.00  0.00   2.0  0.00  0.00  0.00  0.00
 2023 100   221   128  19.5  -6.0 89.00 26.28  0.20  1.73  45.7  0.26 0.275  0.53  5521    15   537  4969   182  2182  1735  0.35   444  1873  1821   425 694.5 33.57  64.8  4027 .0431   389   142  1.20  0.98  36.4  37.5  0.60  0.80  0.40  0.54  0.00  0.00  0.00   2.0  0.00  0.00  0.00  0.00
 2023 101   222   129  21.5  -6.0 89.34 26.28  0.18  1.66  42.0  0.23 0.272  0.50  5563    15   537  5010   163  2165  1796  0.36   446  1934  1812   440 694.5 34.15  65.3  4027 .0446   385   141  1.20  0.98  35.8  37.3  0.58  0.85  0.42  0.56  0.00  0.00  0.00   1.8  0.00  0.10  0.00  0.00
 2023 102   223   130  20.7  -6.0 89.67 26.28  0.16  1.82  41.1  0.20 0.270  0.47  5603    15   537  5050   146  2148  1855  0.37   447  1992  1804   454 694.5 34.70  65.8  4027 .0461   381   140  1.20  0.98  35.3  42.1  0.63  0.74  0.37  0.51  0.00  0.00  0.00   1.8  0.00  0.04  0.00  0.00
 2023 103   224   131  20.1  -6.0 90.00 26.28  0.14  2.36  40.5  0.18 0.267  0.45  5642    15   537  5090   129  2133  1912  0.38   448  2049  1796   468 694.5 35.24  66.3  4027 .0475   377   140  1.20  0.98  34.7  56.5  0.82  0.36  0.18  0.37  0.00  0.00  0.00   1.7  0.00  0.01  0.00  0.00
 2023 104   225   132  20.2  -6.0 91.01 26.28  0.12  2.18  38.8  0.16 0.265  0.42  5680    15   537  5128   113  2162  1913  0.37   459  2050  1842   481 694.5 35.79  67.4  4027 .0475   374   139  1.20  0.98  34.2  53.5  0.76  0.49  0.24  0.42  0.00  0.00  0.00   1.6  0.00  0.01  0.00  0.00
