*SIMULATION OVERVIEW FILE
  

*DSSAT Cropping System Model Ver. 4.8.2.000 -release  AUG 22, 2025 15:36:35

*RUN   1        : WW23_G-1                  CSCER048 CIOB2301    1
 MODEL          : CSCER048 - Wheat
 EXPERIMENT     : CIOB2301 WH ROOTS ANATOMY
 DATA PATH      : C:\DSSAT48\Wheat\
 TREATMENT  1   : WW23_G-1                  CSCER048


 CROP           : Wheat            CULTIVAR : ENTRY 1          ECOTYPE :CI0701
 STARTING DATE  : SEP  1 2022
 PLANTING DATE  : NOV 23 2022      PLANTS/m2 :   137.0    ROW SPACING :  20.cm
 WEATHER        : CIOB   2022
 SOIL           : CCENEB2301     TEXTURE : C     -   CIMMYT CENEB 710
 SOIL INIT COND : DEPTH:120cm EXTR. H2O: 82.8mm  NO3:484.0kg/ha  NH4:341.8kg/ha
 WATER BALANCE  : IRRIGATE ON REPORTED DATE(S)
 IRRIGATION     :      525 mm IN     9 APPLICATIONS
 NITROGEN BAL.  : SOIL-N & N-UPTAKE SIMULATION; NO N-FIXATION
 N-FERTILIZER   :      323 kg/ha IN     3 APPLICATIONS
 RESIDUE/MANURE : INITIAL :     0 kg/ha ;    2222 kg/ha IN     1 APPLICATIONS
 ENVIRONM. OPT. : DAYL=    0.00  SRAD=    0.00  TMAX=    0.00  TMIN=    0.00
                  RAIN=    0.00  CO2 =    0.00  DEW =    0.00  WIND=    0.00
 SIMULATION OPT : WATER   :Y  NITROGEN:Y  N-FIX:N  PHOSPH :N  PESTS  :N
                  PHOTO   :C  ET      :R  INFIL:S  HYDROL :R  SOM    :G
                  CO2 418ppm  NSWIT   :1  EVAP :R  SOIL   :2  STEMP  :D
 MANAGEMENT OPT : PLANTING:R  IRRIG   :R  FERT :R  RESIDUE:R  HARVEST:M
                  WEATHER :M  TILLAGE :Y

*SUMMARY OF SOIL AND GENETIC INPUT PARAMETERS

   SOIL LOWER UPPER   SAT  EXTR  INIT   ROOT   BULK     pH    NO3    NH4    ORG
  DEPTH LIMIT LIMIT    SW    SW    SW   DIST   DENS                          C
   cm   cm3/cm3    cm3/cm3    cm3/cm3         g/cm3         ugN/g  ugN/g     %
-------------------------------------------------------------------------------
  0-  5 0.143 0.204 0.268 0.061 0.172   1.00   1.35   8.50  29.00  29.00   1.08
  5- 15 0.143 0.204 0.268 0.061 0.172   1.00   1.35   8.50  29.00  29.00   1.08
 15- 30 0.143 0.204 0.268 0.061 0.172   1.00   1.35   8.50  29.00  29.00   1.08
 30- 45 0.166 0.234 0.274 0.068 0.225   0.41   1.58   8.50  27.00  16.00   0.80
 45- 60 0.166 0.234 0.274 0.068 0.225   0.41   1.58   8.50  27.00  16.00   0.80
 60- 90 0.155 0.227 0.276 0.072 0.207   0.22   1.50   7.90  53.00  33.00   0.87
 90-120 0.188 0.263 0.308 0.075 0.263   0.12   1.38   8.00   0.01   0.01   0.40

TOT-120  19.6  27.8  33.8   8.3  26.0  <--cm   -  kg/ha-->  484.0  341.8 137370
SOIL ALBEDO    : 0.13      EVAPORATION LIMIT : 6.00         MIN. FACTOR  : 1.00
RUNOFF CURVE # :61.00      DRAINAGE RATE     : 0.60         FERT. FACTOR : 1.00

 Wheat            CULTIVAR: 555175-ENTRY 1            ECOTYPE: CI0701
   P1V   P1D    P5    G1    G2    G3 PHINT
   2.0  42.5 586.0  23.2  46.9  7.48  72.8


*SIMULATED CROP AND SOIL STATUS AT MAIN DEVELOPMENT STAGES
  
 RUN NO.      1   ROOTS ANATOMY                                               

 ...... DATE ......  GROWTH STAGE BIOMASS   LEAF       CROP N      STRESS
 YEARDOY DOM MON DAP ............. kg/ha AREA NUMBER  kg/ha   %   H2O    N
 2022327  23 Nov   0 7 Sowing         0  0.00   0.0     0   0.0  0.00  0.00
 2022328  24 Nov   1 8 Germinate      0  0.00   0.0     0   0.0  0.00  0.00
 2022330  26 Nov   3 9 Emergence      0  0.00   0.0     0   0.0  0.00  0.00
 2023025  25 Jan  63 1 Term Spklt  1483  2.15  14.8    67   4.5  0.25  0.11
 2023043  12 Feb  81 2 End Veg     3558  4.44  18.7   116   3.3  0.05  0.00
 2023056  25 Feb  94 3 End Ear Gr  5665  3.71  18.7   113   2.0  0.01  0.00
 2023071  12 Mar 109 4 Beg Gr Fil  8777  2.88  18.7   112   1.3  0.11  0.00
 2023102  12 Apr 140 5 End Gr Fil 15744  0.69  18.7   181   1.1  0.06  0.00
 2023102  12 Apr 140 6 Harvest    15744  0.69  18.7   181   1.1  0.39  0.00
  
 BIOMASS = Above-ground dry wt (kg/ha)
 LEAF AREA  = Leaf area index (m2/m2)
 LEAF NUMBER  = Leaf number produced on main axis
 CROP N  = Above-ground N (kg/ha)
 CROP N% = Above-ground N conc (%)
 H2O STRESS = Photosynthesis stress,average (0-1,0=none)
 N STRESS = Photosynthesis stress,average (0-1,0=none)
  

*MAIN GROWTH AND DEVELOPMENT VARIABLES

@     VARIABLE                             SIMULATED     MEASURED
      --------                             ---------     --------
      Emergence (DAP)                            3            7
      Anthesis (DAP)                            97           97
      Maturity (DAP)                           140          140
      Product wt (kg dm/ha;no loss)           6800         6797
      Product unit weight (g dm)             0.047        0.047
      Product number (no/m2)                 14500        14451
      Product number (no/group)               25.3        -99.0
      Product harvest index (ratio)           0.43         0.43
      Maximum leaf area index                  4.4          5.7
      Final leaf number (one axis)            18.7        -99.0
      Final shoot number (#/m2)                574          -99
      Canopy (tops) wt (kg dm/ha)            15744        15757
      Vegetative wt (kg dm/ha)                8944         8960
      Root wt (kg dm/ha)                       885          -99
      Assimilate wt (kg dm/ha)               17565          -99
      Senesced wt (kg dm/ha)                   351          -99
      Reserves wt (kg dm/ha)                  4046          -99
      N uptake (kg/ha)                       199.9        -99.0
      N senesced (kg/ha)                       4.9        -99.0
      Above-ground N (kg/ha)                 181.0        -99.0
      Root N (kg/ha)                          14.9        -99.0
      Vegetative N (kg/ha)                    36.0        -99.0
      Product N (kg/ha)                      145.0        139.5
      Product N harvest index (ratio)         0.80       -99.00
      Product N (%)                            2.1          2.1
      Vegetative N (%)                         0.4        -99.0
      Leaf+stem wt,anthesis (kg dm/ha)        6347          -99
      Leaf+stem N,anthesis (kg/ha)           112.6        -99.0
      Leaf N,anthesis (%)                      3.0        -99.0

  Seed N must be added to N uptake to obtain a         
  balance with N in above-ground plus root material    

  Measured data are obtained from the A file,either    
  directly or by calculation from other other variables
  using the expressions given below:                   
                                                       
  Product wt       Harvest wt (HWAH) /                 
                               (Harvest%/100) (HPC)    
  Canopy wt        Grain wt (HWAM)+Vegetative wt (VWAm)
  Vegetative wt    Canopy wt (CWAM) - grain wt (HWAM)  
    = leaf+stem+retained dead material                 
  Product unit wt  Grain yield (HWAM)/Grain # (G#AM)   
  Product #/area   Product#/tiller (H#SM) *            
                                   tiller number (T#AM)
  Product #/group  Product#/area (H#AM) /              
                                tiller number (T#AM)   
  Harvest index    Product wt (HWAM)/Canopy wt.(CWAM)  
                                                       
  The same procedure is followed for nitrogen aspects  


*ENVIRONMENTAL AND STRESS FACTORS

 |-----Development Phase------|-------------Environment--------------|----------------Stress-----------------|
                              |--------Average-------|---Cumulative--|         (0=Min, 1=Max Stress)         |
                         Time  Temp  Temp Solar Photop         Evapo |----Water---|--Nitrogen--|--Phosphorus-|
                         Span   Max   Min   Rad  [day]   Rain  Trans  Photo         Photo         Photo
                         days    °C    °C MJ/m2     hr     mm     mm  synth Growth ' synth Growth  synth Growth
--------------------------------------------------------------------------------------------------------------
 Germinate  - Term Spklt   60  26.3   7.2  14.3  11.35   10.0   86.0  0.250  0.349  0.112  0.112 -99.00 -99.00
 Term Spklt - End Veg      18  25.7   5.6  15.7  11.73    0.1   52.6  0.048  0.091  0.000  0.000 -99.00 -99.00
 End Veg    - End Ear Gr   13  22.7   8.0  14.8  12.06   12.1   36.8  0.006  0.047  0.000  0.000 -99.00 -99.00
 End Ear Gr - Beg Gr Fil   15  27.3   6.7  20.1  12.41    0.1   55.7  0.105  0.159  0.000  0.000 -99.00 -99.00
 Beg Gr Fil - End Gr Fil   31  29.2   8.8  23.2  13.04   65.8  123.9  0.057  0.092  0.000  0.000 -99.00 -99.00
  
 Germinate  - End Gr Fil  137  26.7   7.4  17.2  11.96   88.1  354.9  0.141  0.208  0.049  0.049 -99.00 -99.00
--------------------------------------------------------------------------------------------------------------


*RESOURCE PRODUCTIVITY

 Growing season length: 137 days 

 Precipitation during growth season         88.1 mm[rain]
   Dry Matter Productivity                 17.87 kg[DM]/m3[rain]          =  178.7 kg[DM]/ha per mm[rain]
   Yield Productivity                       7.72 kg[grain yield]/m3[rain] =   77.2 kg[yield]/ha per mm[rain]

 Evapotranspiration during growth season   354.9 mm[ET]
   Dry Matter Productivity                  4.44 kg[DM]/m3[ET]            =   44.4 kg[DM]/ha per mm[ET]
   Yield Productivity                       1.92 kg[grain yield]/m3[ET]   =   19.2 kg[yield]/ha per mm[ET]

 Transpiration during growth season        270.8 mm[EP]
   Dry Matter Productivity                  5.81 kg[DM]/m3[EP]            =   58.1 kg[DM]/ha per mm[EP]
   Yield Productivity                       2.51 kg[grain yield]/m3[EP]   =   25.1 kg[yield]/ha per mm[EP]

 Irrigation during growing season          525.1 mm[irrig]
   Dry Matter Productivity                  3.00 kg[DM]/m3[irrig]         =   30.0 kg[DM]/ha per mm[irrig]
   Yield Productivity                       1.30 kg[grain yield]/m3[irrig]=   13.0 kg[yield]/ha per mm[irrig]

 N applied during growing season           323.0 kg[N applied]/ha
   Dry Matter Productivity                  48.7 kg[DM]/kg[N applied]
   Yield Productivity                       21.1 kg[yield]/kg[N applied]

 N uptake during growing season            199.9 kg[N uptake]/ha
   Dry Matter Productivity                  78.7 kg[DM]/kg[N uptake]
   Yield Productivity                       34.0 kg[yield]/kg[N uptake]

--------------------------------------------------------------------------------------------------------------

          WHEAT YIELD :     6800 kg/ha    [Dry weight] 

**************************************************************************************************************
  

*DSSAT Cropping System Model Ver. 4.8.2.000 -release  AUG 22, 2025 15:36:35

*RUN   2        : WW23_G-2                  CSCER048 CIOB2301    2
 MODEL          : CSCER048 - Wheat
 EXPERIMENT     : CIOB2301 WH ROOTS ANATOMY
 DATA PATH      : C:\DSSAT48\Wheat\
 TREATMENT  2   : WW23_G-2                  CSCER048


 CROP           : Wheat            CULTIVAR : ENTRY 2          ECOTYPE :CI0702
 STARTING DATE  : SEP  1 2022
 PLANTING DATE  : NOV 23 2022      PLANTS/m2 :   137.0    ROW SPACING :  20.cm
 WEATHER        : CIOB   2022
 SOIL           : CCENEB2301     TEXTURE : C     -   CIMMYT CENEB 710
 SOIL INIT COND : DEPTH:120cm EXTR. H2O: 82.8mm  NO3:484.0kg/ha  NH4:341.8kg/ha
 WATER BALANCE  : IRRIGATE ON REPORTED DATE(S)
 IRRIGATION     :      525 mm IN     9 APPLICATIONS
 NITROGEN BAL.  : SOIL-N & N-UPTAKE SIMULATION; NO N-FIXATION
 N-FERTILIZER   :      323 kg/ha IN     3 APPLICATIONS
 RESIDUE/MANURE : INITIAL :     0 kg/ha ;    2222 kg/ha IN     1 APPLICATIONS
 ENVIRONM. OPT. : DAYL=    0.00  SRAD=    0.00  TMAX=    0.00  TMIN=    0.00
                  RAIN=    0.00  CO2 =    0.00  DEW =    0.00  WIND=    0.00
 SIMULATION OPT : WATER   :Y  NITROGEN:Y  N-FIX:N  PHOSPH :N  PESTS  :N
                  PHOTO   :C  ET      :R  INFIL:S  HYDROL :R  SOM    :G
                  CO2 418ppm  NSWIT   :1  EVAP :R  SOIL   :2  STEMP  :D
 MANAGEMENT OPT : PLANTING:R  IRRIG   :R  FERT :R  RESIDUE:R  HARVEST:M
                  WEATHER :M  TILLAGE :Y

*SUMMARY OF SOIL AND GENETIC INPUT PARAMETERS

   SOIL LOWER UPPER   SAT  EXTR  INIT   ROOT   BULK     pH    NO3    NH4    ORG
  DEPTH LIMIT LIMIT    SW    SW    SW   DIST   DENS                          C
   cm   cm3/cm3    cm3/cm3    cm3/cm3         g/cm3         ugN/g  ugN/g     %
-------------------------------------------------------------------------------
  0-  5 0.143 0.204 0.268 0.061 0.172   1.00   1.35   8.50  29.00  29.00   1.08
  5- 15 0.143 0.204 0.268 0.061 0.172   1.00   1.35   8.50  29.00  29.00   1.08
 15- 30 0.143 0.204 0.268 0.061 0.172   1.00   1.35   8.50  29.00  29.00   1.08
 30- 45 0.166 0.234 0.274 0.068 0.225   0.41   1.58   8.50  27.00  16.00   0.80
 45- 60 0.166 0.234 0.274 0.068 0.225   0.41   1.58   8.50  27.00  16.00   0.80
 60- 90 0.155 0.227 0.276 0.072 0.207   0.22   1.50   7.90  53.00  33.00   0.87
 90-120 0.188 0.263 0.308 0.075 0.263   0.12   1.38   8.00   0.01   0.01   0.40

TOT-120  19.6  27.8  33.8   8.3  26.0  <--cm   -  kg/ha-->  484.0  341.8 137370
SOIL ALBEDO    : 0.13      EVAPORATION LIMIT : 6.00         MIN. FACTOR  : 1.00
RUNOFF CURVE # :61.00      DRAINAGE RATE     : 0.60         FERT. FACTOR : 1.00

 Wheat            CULTIVAR: 457793-ENTRY 2            ECOTYPE: CI0702
   P1V   P1D    P5    G1    G2    G3 PHINT
   2.0  42.0 569.1  24.5  42.2  8.00  78.7


*SIMULATED CROP AND SOIL STATUS AT MAIN DEVELOPMENT STAGES
  
 RUN NO.      2   ROOTS ANATOMY                                               

 ...... DATE ......  GROWTH STAGE BIOMASS   LEAF       CROP N      STRESS
 YEARDOY DOM MON DAP ............. kg/ha AREA NUMBER  kg/ha   %   H2O    N
 2022327  23 Nov   0 7 Sowing         0  0.00   0.0     0   0.0  0.00  0.00
 2022328  24 Nov   1 8 Germinate      0  0.00   0.0     0   0.0  0.00  0.00
 2022330  26 Nov   3 9 Emergence      0  0.00   0.0     0   0.0  0.00  0.00
 2023024  24 Jan  62 1 Term Spklt  1697  2.58  13.6    78   4.6  0.12  0.08
 2023042  11 Feb  80 2 End Veg     3813  5.19  17.2   127   3.3  0.01  0.00
 2023055  24 Feb  93 3 End Ear Gr  6038  4.40  17.2   124   2.1  0.00  0.00
 2023071  12 Mar 109 4 Beg Gr Fil  9534  3.53  17.2   123   1.3  0.07  0.00
 2023101  11 Apr 139 5 End Gr Fil 16780  1.62  17.2   195   1.2  0.07  0.00
 2023101  11 Apr 139 6 Harvest    16780  1.62  17.2   195   1.2  0.56  0.00
  

*MAIN GROWTH AND DEVELOPMENT VARIABLES

@     VARIABLE                             SIMULATED     MEASURED
      --------                             ---------     --------
      Emergence (DAP)                            3            7
      Anthesis (DAP)                            96           96
      Maturity (DAP)                           139          139
      Product wt (kg dm/ha;no loss)           6935         6933
      Product unit weight (g dm)             0.042        0.042
      Product number (no/m2)                 16435        16392
      Product number (no/group)               23.0        -99.0
      Product harvest index (ratio)           0.41         0.41
      Maximum leaf area index                  5.2          6.1
      Final leaf number (one axis)            17.2        -99.0
      Final shoot number (#/m2)                716          -99
      Canopy (tops) wt (kg dm/ha)            16780        16796
      Vegetative wt (kg dm/ha)                9844         9863
      Root wt (kg dm/ha)                       926          -99
      Assimilate wt (kg dm/ha)               18682          -99
      Senesced wt (kg dm/ha)                   363          -99
      Reserves wt (kg dm/ha)                  4320          -99
      N uptake (kg/ha)                       214.9        -99.0
      N senesced (kg/ha)                       5.0        -99.0
      Above-ground N (kg/ha)                 195.1        -99.0
      Root N (kg/ha)                          15.6        -99.0
      Vegetative N (kg/ha)                    44.2        -99.0
      Product N (kg/ha)                      150.9        142.3
      Product N harvest index (ratio)         0.77       -99.00
      Product N (%)                            2.2          2.1
      Vegetative N (%)                         0.4        -99.0
      Leaf+stem wt,anthesis (kg dm/ha)        6675          -99
      Leaf+stem N,anthesis (kg/ha)           123.5        -99.0
      Leaf N,anthesis (%)                      3.0        -99.0

*ENVIRONMENTAL AND STRESS FACTORS

 |-----Development Phase------|-------------Environment--------------|----------------Stress-----------------|
                              |--------Average-------|---Cumulative--|         (0=Min, 1=Max Stress)         |
                         Time  Temp  Temp Solar Photop         Evapo |----Water---|--Nitrogen--|--Phosphorus-|
                         Span   Max   Min   Rad  [day]   Rain  Trans  Photo         Photo         Photo
                         days    °C    °C MJ/m2     hr     mm     mm  synth Growth ' synth Growth  synth Growth
--------------------------------------------------------------------------------------------------------------
 Germinate  - Term Spklt   59  26.3   7.3  14.2  11.34   10.0   89.9  0.122  0.212  0.077  0.077 -99.00 -99.00
 Term Spklt - End Veg      18  25.7   5.4  15.8  11.71    0.1   55.2  0.008  0.031  0.000  0.000 -99.00 -99.00
 End Veg    - End Ear Gr   13  22.9   7.9  15.1  12.03   12.1   37.7  0.000  0.000  0.000  0.000 -99.00 -99.00
 End Ear Gr - Beg Gr Fil   16  27.1   6.7  19.6  12.39    0.1   59.5  0.073  0.119  0.000  0.000 -99.00 -99.00
 Beg Gr Fil - End Gr Fil   30  29.1   8.8  23.1  13.02   65.8  124.8  0.073  0.103  0.000  0.000 -99.00 -99.00
  
 Germinate  - End Gr Fil  136  26.6   7.3  17.1  11.95   88.1  367.1  0.079  0.133  0.033  0.033 -99.00 -99.00
--------------------------------------------------------------------------------------------------------------


*RESOURCE PRODUCTIVITY

 Growing season length: 136 days 

 Precipitation during growth season         88.1 mm[rain]
   Dry Matter Productivity                 19.05 kg[DM]/m3[rain]          =  190.5 kg[DM]/ha per mm[rain]
   Yield Productivity                       7.87 kg[grain yield]/m3[rain] =   78.7 kg[yield]/ha per mm[rain]

 Evapotranspiration during growth season   367.1 mm[ET]
   Dry Matter Productivity                  4.57 kg[DM]/m3[ET]            =   45.7 kg[DM]/ha per mm[ET]
   Yield Productivity                       1.89 kg[grain yield]/m3[ET]   =   18.9 kg[yield]/ha per mm[ET]

 Transpiration during growth season        284.9 mm[EP]
   Dry Matter Productivity                  5.89 kg[DM]/m3[EP]            =   58.9 kg[DM]/ha per mm[EP]
   Yield Productivity                       2.43 kg[grain yield]/m3[EP]   =   24.3 kg[yield]/ha per mm[EP]

 Irrigation during growing season          525.1 mm[irrig]
   Dry Matter Productivity                  3.20 kg[DM]/m3[irrig]         =   32.0 kg[DM]/ha per mm[irrig]
   Yield Productivity                       1.32 kg[grain yield]/m3[irrig]=   13.2 kg[yield]/ha per mm[irrig]

 N applied during growing season           323.0 kg[N applied]/ha
   Dry Matter Productivity                  51.9 kg[DM]/kg[N applied]
   Yield Productivity                       21.5 kg[yield]/kg[N applied]

 N uptake during growing season            214.9 kg[N uptake]/ha
   Dry Matter Productivity                  78.1 kg[DM]/kg[N uptake]
   Yield Productivity                       32.3 kg[yield]/kg[N uptake]

--------------------------------------------------------------------------------------------------------------

          WHEAT YIELD :     6935 kg/ha    [Dry weight] 

**************************************************************************************************************
  

*DSSAT Cropping System Model Ver. 4.8.2.000 -release  AUG 22, 2025 15:36:35

*RUN   3        : WW23_G-3                  CSCER048 CIOB2301    3
 MODEL          : CSCER048 - Wheat
 EXPERIMENT     : CIOB2301 WH ROOTS ANATOMY
 DATA PATH      : C:\DSSAT48\Wheat\
 TREATMENT  3   : WW23_G-3                  CSCER048


 CROP           : Wheat            CULTIVAR : ENTRY 3          ECOTYPE :CI0701
 STARTING DATE  : SEP  1 2022
 PLANTING DATE  : NOV 23 2022      PLANTS/m2 :   137.0    ROW SPACING :  20.cm
 WEATHER        : CIOB   2022
 SOIL           : CCENEB2301     TEXTURE : C     -   CIMMYT CENEB 710
 SOIL INIT COND : DEPTH:120cm EXTR. H2O: 82.8mm  NO3:484.0kg/ha  NH4:341.8kg/ha
 WATER BALANCE  : IRRIGATE ON REPORTED DATE(S)
 IRRIGATION     :      525 mm IN     9 APPLICATIONS
 NITROGEN BAL.  : SOIL-N & N-UPTAKE SIMULATION; NO N-FIXATION
 N-FERTILIZER   :      323 kg/ha IN     3 APPLICATIONS
 RESIDUE/MANURE : INITIAL :     0 kg/ha ;    2222 kg/ha IN     1 APPLICATIONS
 ENVIRONM. OPT. : DAYL=    0.00  SRAD=    0.00  TMAX=    0.00  TMIN=    0.00
                  RAIN=    0.00  CO2 =    0.00  DEW =    0.00  WIND=    0.00
 SIMULATION OPT : WATER   :Y  NITROGEN:Y  N-FIX:N  PHOSPH :N  PESTS  :N
                  PHOTO   :C  ET      :R  INFIL:S  HYDROL :R  SOM    :G
                  CO2 418ppm  NSWIT   :1  EVAP :R  SOIL   :2  STEMP  :D
 MANAGEMENT OPT : PLANTING:R  IRRIG   :R  FERT :R  RESIDUE:R  HARVEST:M
                  WEATHER :M  TILLAGE :Y

*SUMMARY OF SOIL AND GENETIC INPUT PARAMETERS

   SOIL LOWER UPPER   SAT  EXTR  INIT   ROOT   BULK     pH    NO3    NH4    ORG
  DEPTH LIMIT LIMIT    SW    SW    SW   DIST   DENS                          C
   cm   cm3/cm3    cm3/cm3    cm3/cm3         g/cm3         ugN/g  ugN/g     %
-------------------------------------------------------------------------------
  0-  5 0.143 0.204 0.268 0.061 0.172   1.00   1.35   8.50  29.00  29.00   1.08
  5- 15 0.143 0.204 0.268 0.061 0.172   1.00   1.35   8.50  29.00  29.00   1.08
 15- 30 0.143 0.204 0.268 0.061 0.172   1.00   1.35   8.50  29.00  29.00   1.08
 30- 45 0.166 0.234 0.274 0.068 0.225   0.41   1.58   8.50  27.00  16.00   0.80
 45- 60 0.166 0.234 0.274 0.068 0.225   0.41   1.58   8.50  27.00  16.00   0.80
 60- 90 0.155 0.227 0.276 0.072 0.207   0.22   1.50   7.90  53.00  33.00   0.87
 90-120 0.188 0.263 0.308 0.075 0.263   0.12   1.38   8.00   0.01   0.01   0.40

TOT-120  19.6  27.8  33.8   8.3  26.0  <--cm   -  kg/ha-->  484.0  341.8 137370
SOIL ALBEDO    : 0.13      EVAPORATION LIMIT : 6.00         MIN. FACTOR  : 1.00
RUNOFF CURVE # :61.00      DRAINAGE RATE     : 0.60         FERT. FACTOR : 1.00

 Wheat            CULTIVAR: 518062-ENTRY 3            ECOTYPE: CI0701
   P1V   P1D    P5    G1    G2    G3 PHINT
   2.0  38.3 573.0  23.8  47.6  0.50 121.8


*SIMULATED CROP AND SOIL STATUS AT MAIN DEVELOPMENT STAGES
  
 RUN NO.      3   ROOTS ANATOMY                                               

 ...... DATE ......  GROWTH STAGE BIOMASS   LEAF       CROP N      STRESS
 YEARDOY DOM MON DAP ............. kg/ha AREA NUMBER  kg/ha   %   H2O    N
 2022327  23 Nov   0 7 Sowing         0  0.00   0.0     0   0.0  0.00  0.00
 2022328  24 Nov   1 8 Germinate      0  0.00   0.0     0   0.0  0.00  0.00
 2022330  26 Nov   3 9 Emergence      0  0.00   0.0     0   0.0  0.00  0.00
 2023022  22 Jan  60 1 Term Spklt  1455  2.55   8.9    68   4.7  0.31  0.11
 2023041  10 Feb  79 2 End Veg     3756  5.62  11.3   122   3.2  0.07  0.00
 2023054  23 Feb  92 3 End Ear Gr  5896  5.06  11.3   119   2.0  0.00  0.00
 2023070  11 Mar 108 4 Beg Gr Fil  9172  4.27  11.3   118   1.3  0.12  0.00
 2023100  10 Apr 138 5 End Gr Fil 16645  1.16  11.3   190   1.1  0.08  0.00
 2023100  10 Apr 138 6 Harvest    16645  1.16  11.3   190   1.1  0.53  0.00
  

*MAIN GROWTH AND DEVELOPMENT VARIABLES

@     VARIABLE                             SIMULATED     MEASURED
      --------                             ---------     --------
      Emergence (DAP)                            3            7
      Anthesis (DAP)                            95           95
      Maturity (DAP)                           138          138
      Product wt (kg dm/ha;no loss)           7117         7260
      Product unit weight (g dm)             0.048        0.049
      Product number (no/m2)                 14951        14914
      Product number (no/group)               11.6        -99.0
      Product harvest index (ratio)           0.43         0.43
      Maximum leaf area index                  5.6          5.6
      Final leaf number (one axis)            11.3        -99.0
      Final shoot number (#/m2)               1289          -99
      Canopy (tops) wt (kg dm/ha)            16645        16824
      Vegetative wt (kg dm/ha)                9528         9564
      Root wt (kg dm/ha)                       909          -99
      Assimilate wt (kg dm/ha)               18424          -99
      Senesced wt (kg dm/ha)                   269          -99
      Reserves wt (kg dm/ha)                  4479          -99
      N uptake (kg/ha)                       208.2        -99.0
      N senesced (kg/ha)                       3.7        -99.0
      Above-ground N (kg/ha)                 190.0        -99.0
      Root N (kg/ha)                          15.3        -99.0
      Vegetative N (kg/ha)                    37.3        -99.0
      Product N (kg/ha)                      152.7        139.3
      Product N harvest index (ratio)         0.80       -99.00
      Product N (%)                            2.1          1.9
      Vegetative N (%)                         0.4        -99.0
      Leaf+stem wt,anthesis (kg dm/ha)        6449          -99
      Leaf+stem N,anthesis (kg/ha)           118.6        -99.0
      Leaf N,anthesis (%)                      3.0        -99.0

*ENVIRONMENTAL AND STRESS FACTORS

 |-----Development Phase------|-------------Environment--------------|----------------Stress-----------------|
                              |--------Average-------|---Cumulative--|         (0=Min, 1=Max Stress)         |
                         Time  Temp  Temp Solar Photop         Evapo |----Water---|--Nitrogen--|--Phosphorus-|
                         Span   Max   Min   Rad  [day]   Rain  Trans  Photo         Photo         Photo
                         days    °C    °C MJ/m2     hr     mm     mm  synth Growth ' synth Growth  synth Growth
--------------------------------------------------------------------------------------------------------------
 Germinate  - Term Spklt   57  26.5   7.4  14.1  11.34   10.0   79.9  0.311  0.416  0.112  0.112 -99.00 -99.00
 Term Spklt - End Veg      19  25.5   5.2  16.4  11.68    0.1   57.2  0.069  0.121  0.000  0.000 -99.00 -99.00
 End Veg    - End Ear Gr   13  22.8   8.0  14.5  12.01   12.1   36.3  0.005  0.038  0.000  0.000 -99.00 -99.00
 End Ear Gr - Beg Gr Fil   16  26.3   6.3  19.1  12.37    0.1   53.9  0.118  0.169  0.000  0.000 -99.00 -99.00
 Beg Gr Fil - End Gr Fil   30  29.2   8.8  23.0  13.00   65.8  128.1  0.081  0.119  0.000  0.000 -99.00 -99.00
  
 Germinate  - End Gr Fil  135  26.6   7.3  17.1  11.94   88.1  355.4  0.173  0.243  0.047  0.047 -99.00 -99.00
--------------------------------------------------------------------------------------------------------------


*RESOURCE PRODUCTIVITY

 Growing season length: 135 days 

 Precipitation during growth season         88.1 mm[rain]
   Dry Matter Productivity                 18.89 kg[DM]/m3[rain]          =  188.9 kg[DM]/ha per mm[rain]
   Yield Productivity                       8.08 kg[grain yield]/m3[rain] =   80.8 kg[yield]/ha per mm[rain]

 Evapotranspiration during growth season   355.4 mm[ET]
   Dry Matter Productivity                  4.68 kg[DM]/m3[ET]            =   46.8 kg[DM]/ha per mm[ET]
   Yield Productivity                       2.00 kg[grain yield]/m3[ET]   =   20.0 kg[yield]/ha per mm[ET]

 Transpiration during growth season        290.0 mm[EP]
   Dry Matter Productivity                  5.74 kg[DM]/m3[EP]            =   57.4 kg[DM]/ha per mm[EP]
   Yield Productivity                       2.45 kg[grain yield]/m3[EP]   =   24.5 kg[yield]/ha per mm[EP]

 Irrigation during growing season          525.1 mm[irrig]
   Dry Matter Productivity                  3.17 kg[DM]/m3[irrig]         =   31.7 kg[DM]/ha per mm[irrig]
   Yield Productivity                       1.36 kg[grain yield]/m3[irrig]=   13.6 kg[yield]/ha per mm[irrig]

 N applied during growing season           323.0 kg[N applied]/ha
   Dry Matter Productivity                  51.5 kg[DM]/kg[N applied]
   Yield Productivity                       22.0 kg[yield]/kg[N applied]

 N uptake during growing season            208.2 kg[N uptake]/ha
   Dry Matter Productivity                  80.0 kg[DM]/kg[N uptake]
   Yield Productivity                       34.2 kg[yield]/kg[N uptake]

--------------------------------------------------------------------------------------------------------------

          WHEAT YIELD :     7117 kg/ha    [Dry weight] 

**************************************************************************************************************
  

*DSSAT Cropping System Model Ver. 4.8.2.000 -release  AUG 22, 2025 15:36:35

*RUN   4        : WW23_G-4                  CSCER048 CIOB2301    4
 MODEL          : CSCER048 - Wheat
 EXPERIMENT     : CIOB2301 WH ROOTS ANATOMY
 DATA PATH      : C:\DSSAT48\Wheat\
 TREATMENT  4   : WW23_G-4                  CSCER048


 CROP           : Wheat            CULTIVAR : ENTRY 4          ECOTYPE :CI0701
 STARTING DATE  : SEP  1 2022
 PLANTING DATE  : NOV 23 2022      PLANTS/m2 :   137.0    ROW SPACING :  20.cm
 WEATHER        : CIOB   2022
 SOIL           : CCENEB2301     TEXTURE : C     -   CIMMYT CENEB 710
 SOIL INIT COND : DEPTH:120cm EXTR. H2O: 82.8mm  NO3:484.0kg/ha  NH4:341.8kg/ha
 WATER BALANCE  : IRRIGATE ON REPORTED DATE(S)
 IRRIGATION     :      525 mm IN     9 APPLICATIONS
 NITROGEN BAL.  : SOIL-N & N-UPTAKE SIMULATION; NO N-FIXATION
 N-FERTILIZER   :      323 kg/ha IN     3 APPLICATIONS
 RESIDUE/MANURE : INITIAL :     0 kg/ha ;    2222 kg/ha IN     1 APPLICATIONS
 ENVIRONM. OPT. : DAYL=    0.00  SRAD=    0.00  TMAX=    0.00  TMIN=    0.00
                  RAIN=    0.00  CO2 =    0.00  DEW =    0.00  WIND=    0.00
 SIMULATION OPT : WATER   :Y  NITROGEN:Y  N-FIX:N  PHOSPH :N  PESTS  :N
                  PHOTO   :C  ET      :R  INFIL:S  HYDROL :R  SOM    :G
                  CO2 418ppm  NSWIT   :1  EVAP :R  SOIL   :2  STEMP  :D
 MANAGEMENT OPT : PLANTING:R  IRRIG   :R  FERT :R  RESIDUE:R  HARVEST:M
                  WEATHER :M  TILLAGE :Y

*SUMMARY OF SOIL AND GENETIC INPUT PARAMETERS

   SOIL LOWER UPPER   SAT  EXTR  INIT   ROOT   BULK     pH    NO3    NH4    ORG
  DEPTH LIMIT LIMIT    SW    SW    SW   DIST   DENS                          C
   cm   cm3/cm3    cm3/cm3    cm3/cm3         g/cm3         ugN/g  ugN/g     %
-------------------------------------------------------------------------------
  0-  5 0.143 0.204 0.268 0.061 0.172   1.00   1.35   8.50  29.00  29.00   1.08
  5- 15 0.143 0.204 0.268 0.061 0.172   1.00   1.35   8.50  29.00  29.00   1.08
 15- 30 0.143 0.204 0.268 0.061 0.172   1.00   1.35   8.50  29.00  29.00   1.08
 30- 45 0.166 0.234 0.274 0.068 0.225   0.41   1.58   8.50  27.00  16.00   0.80
 45- 60 0.166 0.234 0.274 0.068 0.225   0.41   1.58   8.50  27.00  16.00   0.80
 60- 90 0.155 0.227 0.276 0.072 0.207   0.22   1.50   7.90  53.00  33.00   0.87
 90-120 0.188 0.263 0.308 0.075 0.263   0.12   1.38   8.00   0.01   0.01   0.40

TOT-120  19.6  27.8  33.8   8.3  26.0  <--cm   -  kg/ha-->  484.0  341.8 137370
SOIL ALBEDO    : 0.13      EVAPORATION LIMIT : 6.00         MIN. FACTOR  : 1.00
RUNOFF CURVE # :61.00      DRAINAGE RATE     : 0.60         FERT. FACTOR : 1.00

 Wheat            CULTIVAR: 617502-ENTRY 4            ECOTYPE: CI0701
   P1V   P1D    P5    G1    G2    G3 PHINT
   2.0  43.2 575.1  23.3  49.2  7.99  72.8


*SIMULATED CROP AND SOIL STATUS AT MAIN DEVELOPMENT STAGES
  
 RUN NO.      4   ROOTS ANATOMY                                               

 ...... DATE ......  GROWTH STAGE BIOMASS   LEAF       CROP N      STRESS
 YEARDOY DOM MON DAP ............. kg/ha AREA NUMBER  kg/ha   %   H2O    N
 2022327  23 Nov   0 7 Sowing         0  0.00   0.0     0   0.0  0.00  0.00
 2022328  24 Nov   1 8 Germinate      0  0.00   0.0     0   0.0  0.00  0.00
 2022330  26 Nov   3 9 Emergence      0  0.00   0.0     0   0.0  0.00  0.00
 2023025  25 Jan  63 1 Term Spklt  1482  2.15  14.8    67   4.5  0.25  0.11
 2023043  12 Feb  81 2 End Veg     3557  4.45  18.7   117   3.3  0.05  0.00
 2023056  25 Feb  94 3 End Ear Gr  5664  3.72  18.7   114   2.0  0.01  0.00
 2023072  13 Mar 110 4 Beg Gr Fil  9037  2.83  18.7   112   1.2  0.10  0.00
 2023102  12 Apr 140 5 End Gr Fil 15738  0.67  18.7   190   1.2  0.06  0.00
 2023102  12 Apr 140 6 Harvest    15738  0.67  18.7   190   1.2  0.37  0.00
  

*MAIN GROWTH AND DEVELOPMENT VARIABLES

@     VARIABLE                             SIMULATED     MEASURED
      --------                             ---------     --------
      Emergence (DAP)                            3            7
      Anthesis (DAP)                            97           97
      Maturity (DAP)                           140          141
      Product wt (kg dm/ha;no loss)           7161         7183
      Product unit weight (g dm)             0.049        0.049
      Product number (no/m2)                 14556        14585
      Product number (no/group)               25.8        -99.0
      Product harvest index (ratio)           0.46         0.46
      Maximum leaf area index                  4.5          5.5
      Final leaf number (one axis)            18.7        -99.0
      Final shoot number (#/m2)                565          -99
      Canopy (tops) wt (kg dm/ha)            15738        15767
      Vegetative wt (kg dm/ha)                8577         8584
      Root wt (kg dm/ha)                       889          -99
      Assimilate wt (kg dm/ha)               17567          -99
      Senesced wt (kg dm/ha)                   352          -99
      Reserves wt (kg dm/ha)                  3689          -99
      N uptake (kg/ha)                       209.3        -99.0
      N senesced (kg/ha)                       4.9        -99.0
      Above-ground N (kg/ha)                 190.3        -99.0
      Root N (kg/ha)                          14.9        -99.0
      Vegetative N (kg/ha)                    35.8        -99.0
      Product N (kg/ha)                      154.5        153.2
      Product N harvest index (ratio)         0.81       -99.00
      Product N (%)                            2.2          2.1
      Vegetative N (%)                         0.4        -99.0
      Leaf+stem wt,anthesis (kg dm/ha)        6345          -99
      Leaf+stem N,anthesis (kg/ha)           113.1        -99.0
      Leaf N,anthesis (%)                      3.0        -99.0

*ENVIRONMENTAL AND STRESS FACTORS

 |-----Development Phase------|-------------Environment--------------|----------------Stress-----------------|
                              |--------Average-------|---Cumulative--|         (0=Min, 1=Max Stress)         |
                         Time  Temp  Temp Solar Photop         Evapo |----Water---|--Nitrogen--|--Phosphorus-|
                         Span   Max   Min   Rad  [day]   Rain  Trans  Photo         Photo         Photo
                         days    °C    °C MJ/m2     hr     mm     mm  synth Growth ' synth Growth  synth Growth
--------------------------------------------------------------------------------------------------------------
 Germinate  - Term Spklt   60  26.3   7.2  14.3  11.35   10.0   86.0  0.250  0.349  0.112  0.112 -99.00 -99.00
 Term Spklt - End Veg      18  25.7   5.6  15.7  11.73    0.1   52.6  0.048  0.091  0.000  0.000 -99.00 -99.00
 End Veg    - End Ear Gr   13  22.7   8.0  14.8  12.06   12.1   36.8  0.006  0.047  0.000  0.000 -99.00 -99.00
 End Ear Gr - Beg Gr Fil   16  27.6   7.0  20.3  12.42    0.1   60.8  0.098  0.148  0.000  0.000 -99.00 -99.00
 Beg Gr Fil - End Gr Fil   30  29.1   8.7  23.2  13.05   65.8  118.7  0.055  0.091  0.000  0.000 -99.00 -99.00
  
 Germinate  - End Gr Fil  137  26.7   7.4  17.2  11.96   88.1  354.9  0.140  0.206  0.049  0.049 -99.00 -99.00
--------------------------------------------------------------------------------------------------------------


*RESOURCE PRODUCTIVITY

 Growing season length: 137 days 

 Precipitation during growth season         88.1 mm[rain]
   Dry Matter Productivity                 17.86 kg[DM]/m3[rain]          =  178.6 kg[DM]/ha per mm[rain]
   Yield Productivity                       8.13 kg[grain yield]/m3[rain] =   81.3 kg[yield]/ha per mm[rain]

 Evapotranspiration during growth season   354.9 mm[ET]
   Dry Matter Productivity                  4.43 kg[DM]/m3[ET]            =   44.3 kg[DM]/ha per mm[ET]
   Yield Productivity                       2.02 kg[grain yield]/m3[ET]   =   20.2 kg[yield]/ha per mm[ET]

 Transpiration during growth season        270.8 mm[EP]
   Dry Matter Productivity                  5.81 kg[DM]/m3[EP]            =   58.1 kg[DM]/ha per mm[EP]
   Yield Productivity                       2.64 kg[grain yield]/m3[EP]   =   26.4 kg[yield]/ha per mm[EP]

 Irrigation during growing season          525.1 mm[irrig]
   Dry Matter Productivity                  3.00 kg[DM]/m3[irrig]         =   30.0 kg[DM]/ha per mm[irrig]
   Yield Productivity                       1.36 kg[grain yield]/m3[irrig]=   13.6 kg[yield]/ha per mm[irrig]

 N applied during growing season           323.0 kg[N applied]/ha
   Dry Matter Productivity                  48.7 kg[DM]/kg[N applied]
   Yield Productivity                       22.2 kg[yield]/kg[N applied]

 N uptake during growing season            209.3 kg[N uptake]/ha
   Dry Matter Productivity                  75.2 kg[DM]/kg[N uptake]
   Yield Productivity                       34.2 kg[yield]/kg[N uptake]

--------------------------------------------------------------------------------------------------------------

          WHEAT YIELD :     7161 kg/ha    [Dry weight] 

**************************************************************************************************************
  

*DSSAT Cropping System Model Ver. 4.8.2.000 -release  AUG 22, 2025 15:36:35

*RUN   5        : WW23_G-5                  CSCER048 CIOB2301    5
 MODEL          : CSCER048 - Wheat
 EXPERIMENT     : CIOB2301 WH ROOTS ANATOMY
 DATA PATH      : C:\DSSAT48\Wheat\
 TREATMENT  5   : WW23_G-5                  CSCER048


 CROP           : Wheat            CULTIVAR : ENTRY 5          ECOTYPE :CI0700
 STARTING DATE  : SEP  1 2022
 PLANTING DATE  : NOV 23 2022      PLANTS/m2 :   137.0    ROW SPACING :  20.cm
 WEATHER        : CIOB   2022
 SOIL           : CCENEB2301     TEXTURE : C     -   CIMMYT CENEB 710
 SOIL INIT COND : DEPTH:120cm EXTR. H2O: 82.8mm  NO3:484.0kg/ha  NH4:341.8kg/ha
 WATER BALANCE  : IRRIGATE ON REPORTED DATE(S)
 IRRIGATION     :      525 mm IN     9 APPLICATIONS
 NITROGEN BAL.  : SOIL-N & N-UPTAKE SIMULATION; NO N-FIXATION
 N-FERTILIZER   :      323 kg/ha IN     3 APPLICATIONS
 RESIDUE/MANURE : INITIAL :     0 kg/ha ;    2222 kg/ha IN     1 APPLICATIONS
 ENVIRONM. OPT. : DAYL=    0.00  SRAD=    0.00  TMAX=    0.00  TMIN=    0.00
                  RAIN=    0.00  CO2 =    0.00  DEW =    0.00  WIND=    0.00
 SIMULATION OPT : WATER   :Y  NITROGEN:Y  N-FIX:N  PHOSPH :N  PESTS  :N
                  PHOTO   :C  ET      :R  INFIL:S  HYDROL :R  SOM    :G
                  CO2 418ppm  NSWIT   :1  EVAP :R  SOIL   :2  STEMP  :D
 MANAGEMENT OPT : PLANTING:R  IRRIG   :R  FERT :R  RESIDUE:R  HARVEST:M
                  WEATHER :M  TILLAGE :Y

*SUMMARY OF SOIL AND GENETIC INPUT PARAMETERS

   SOIL LOWER UPPER   SAT  EXTR  INIT   ROOT   BULK     pH    NO3    NH4    ORG
  DEPTH LIMIT LIMIT    SW    SW    SW   DIST   DENS                          C
   cm   cm3/cm3    cm3/cm3    cm3/cm3         g/cm3         ugN/g  ugN/g     %
-------------------------------------------------------------------------------
  0-  5 0.143 0.204 0.268 0.061 0.172   1.00   1.35   8.50  29.00  29.00   1.08
  5- 15 0.143 0.204 0.268 0.061 0.172   1.00   1.35   8.50  29.00  29.00   1.08
 15- 30 0.143 0.204 0.268 0.061 0.172   1.00   1.35   8.50  29.00  29.00   1.08
 30- 45 0.166 0.234 0.274 0.068 0.225   0.41   1.58   8.50  27.00  16.00   0.80
 45- 60 0.166 0.234 0.274 0.068 0.225   0.41   1.58   8.50  27.00  16.00   0.80
 60- 90 0.155 0.227 0.276 0.072 0.207   0.22   1.50   7.90  53.00  33.00   0.87
 90-120 0.188 0.263 0.308 0.075 0.263   0.12   1.38   8.00   0.01   0.01   0.40

TOT-120  19.6  27.8  33.8   8.3  26.0  <--cm   -  kg/ha-->  484.0  341.8 137370
SOIL ALBEDO    : 0.13      EVAPORATION LIMIT : 6.00         MIN. FACTOR  : 1.00
RUNOFF CURVE # :61.00      DRAINAGE RATE     : 0.60         FERT. FACTOR : 1.00

 Wheat            CULTIVAR: 617636-ENTRY 5            ECOTYPE: CI0700
   P1V   P1D    P5    G1    G2    G3 PHINT
   2.0  34.3 618.3  17.7  52.7  0.50 150.0


*SIMULATED CROP AND SOIL STATUS AT MAIN DEVELOPMENT STAGES
  
 RUN NO.      5   ROOTS ANATOMY                                               

 ...... DATE ......  GROWTH STAGE BIOMASS   LEAF       CROP N      STRESS
 YEARDOY DOM MON DAP ............. kg/ha AREA NUMBER  kg/ha   %   H2O    N
 2022327  23 Nov   0 7 Sowing         0  0.00   0.0     0   0.0  0.00  0.00
 2022328  24 Nov   1 8 Germinate      0  0.00   0.0     0   0.0  0.00  0.00
 2022330  26 Nov   3 9 Emergence      0  0.00   0.0     0   0.0  0.00  0.00
 2023028  28 Jan  66 1 Term Spklt  2086  3.85   8.0   101   4.8  0.26  0.06
 2023046  15 Feb  84 2 End Veg     3902  6.34   9.9   133   3.4  0.04  0.00
 2023059  28 Feb  97 3 End Ear Gr  6915  5.68   9.9   128   1.9  0.00  0.00
 2023074  15 Mar 112 4 Beg Gr Fil 11352  4.99   9.9   127   1.1  0.09  0.00
 2023106  16 Apr 144 5 End Gr Fil 20239  1.80   9.9   172   0.8  0.25  0.00
 2023106  16 Apr 144 6 Harvest    20239  1.80   9.9   172   0.8  0.81  0.00
  

*MAIN GROWTH AND DEVELOPMENT VARIABLES

@     VARIABLE                             SIMULATED     MEASURED
      --------                             ---------     --------
      Emergence (DAP)                            3            7
      Anthesis (DAP)                           101          100
      Maturity (DAP)                           144          144
      Product wt (kg dm/ha;no loss)           6610         7020
      Product unit weight (g dm)             0.047        0.049
      Product number (no/m2)                 14128        14222
      Product number (no/group)               10.2        -99.0
      Product harvest index (ratio)           0.33         0.34
      Maximum leaf area index                  6.3          5.3
      Final leaf number (one axis)             9.9        -99.0
      Final shoot number (#/m2)               1388          -99
      Canopy (tops) wt (kg dm/ha)            20239        20705
      Vegetative wt (kg dm/ha)               13629        13685
      Root wt (kg dm/ha)                      1059          -99
      Assimilate wt (kg dm/ha)               22250          -99
      Senesced wt (kg dm/ha)                   244          -99
      Reserves wt (kg dm/ha)                  7545          -99
      N uptake (kg/ha)                       192.2        -99.0
      N senesced (kg/ha)                       3.3        -99.0
      Above-ground N (kg/ha)                 171.8        -99.0
      Root N (kg/ha)                          17.8        -99.0
      Vegetative N (kg/ha)                    44.8        -99.0
      Product N (kg/ha)                      127.0        148.5
      Product N harvest index (ratio)         0.74       -99.00
      Product N (%)                            1.9          2.1
      Vegetative N (%)                         0.3        -99.0
      Leaf+stem wt,anthesis (kg dm/ha)        7963          -99
      Leaf+stem N,anthesis (kg/ha)           127.5        -99.0
      Leaf N,anthesis (%)                      3.0        -99.0

*ENVIRONMENTAL AND STRESS FACTORS

 |-----Development Phase------|-------------Environment--------------|----------------Stress-----------------|
                              |--------Average-------|---Cumulative--|         (0=Min, 1=Max Stress)         |
                         Time  Temp  Temp Solar Photop         Evapo |----Water---|--Nitrogen--|--Phosphorus-|
                         Span   Max   Min   Rad  [day]   Rain  Trans  Photo         Photo         Photo
                         days    °C    °C MJ/m2     hr     mm     mm  synth Growth ' synth Growth  synth Growth
--------------------------------------------------------------------------------------------------------------
 Germinate  - Term Spklt   63  26.2   7.1  14.3  11.36   10.0  104.6  0.264  0.361  0.060  0.060 -99.00 -99.00
 Term Spklt - End Veg      18  25.3   5.7  15.8  11.78    3.6   53.9  0.036  0.082  0.000  0.000 -99.00 -99.00
 End Veg    - End Ear Gr   13  23.7   8.2  15.9  12.13    8.6   40.6  0.000  0.000  0.000  0.000 -99.00 -99.00
 End Ear Gr - Beg Gr Fil   15  28.3   7.3  20.5  12.49    0.1   58.5  0.089  0.140  0.000  0.000 -99.00 -99.00
 Beg Gr Fil - End Gr Fil   32  29.1   9.0  23.5  13.14   65.8  118.6  0.245  0.284  0.000  0.000 -99.00 -99.00
  
 Germinate  - End Gr Fil  141  26.7   7.5  17.4  12.01   88.1  376.1  0.188  0.251  0.027  0.027 -99.00 -99.00
--------------------------------------------------------------------------------------------------------------


*RESOURCE PRODUCTIVITY

 Growing season length: 141 days 

 Precipitation during growth season         88.1 mm[rain]
   Dry Matter Productivity                 22.97 kg[DM]/m3[rain]          =  229.7 kg[DM]/ha per mm[rain]
   Yield Productivity                       7.50 kg[grain yield]/m3[rain] =   75.0 kg[yield]/ha per mm[rain]

 Evapotranspiration during growth season   376.1 mm[ET]
   Dry Matter Productivity                  5.38 kg[DM]/m3[ET]            =   53.8 kg[DM]/ha per mm[ET]
   Yield Productivity                       1.76 kg[grain yield]/m3[ET]   =   17.6 kg[yield]/ha per mm[ET]

 Transpiration during growth season        324.3 mm[EP]
   Dry Matter Productivity                  6.24 kg[DM]/m3[EP]            =   62.4 kg[DM]/ha per mm[EP]
   Yield Productivity                       2.04 kg[grain yield]/m3[EP]   =   20.4 kg[yield]/ha per mm[EP]

 Irrigation during growing season          525.1 mm[irrig]
   Dry Matter Productivity                  3.85 kg[DM]/m3[irrig]         =   38.5 kg[DM]/ha per mm[irrig]
   Yield Productivity                       1.26 kg[grain yield]/m3[irrig]=   12.6 kg[yield]/ha per mm[irrig]

 N applied during growing season           323.0 kg[N applied]/ha
   Dry Matter Productivity                  62.7 kg[DM]/kg[N applied]
   Yield Productivity                       20.5 kg[yield]/kg[N applied]

 N uptake during growing season            192.2 kg[N uptake]/ha
   Dry Matter Productivity                 105.3 kg[DM]/kg[N uptake]
   Yield Productivity                       34.4 kg[yield]/kg[N uptake]

--------------------------------------------------------------------------------------------------------------

          WHEAT YIELD :     6610 kg/ha    [Dry weight] 

**************************************************************************************************************
  

*DSSAT Cropping System Model Ver. 4.8.2.000 -release  AUG 22, 2025 15:36:35

*RUN   6        : WW23_G-6                  CSCER048 CIOB2301    6
 MODEL          : CSCER048 - Wheat
 EXPERIMENT     : CIOB2301 WH ROOTS ANATOMY
 DATA PATH      : C:\DSSAT48\Wheat\
 TREATMENT  6   : WW23_G-6                  CSCER048


 CROP           : Wheat            CULTIVAR : ENTRY 6          ECOTYPE :CI0700
 STARTING DATE  : SEP  1 2022
 PLANTING DATE  : NOV 23 2022      PLANTS/m2 :   137.0    ROW SPACING :  20.cm
 WEATHER        : CIOB   2022
 SOIL           : CCENEB2301     TEXTURE : C     -   CIMMYT CENEB 710
 SOIL INIT COND : DEPTH:120cm EXTR. H2O: 82.8mm  NO3:484.0kg/ha  NH4:341.8kg/ha
 WATER BALANCE  : IRRIGATE ON REPORTED DATE(S)
 IRRIGATION     :      525 mm IN     9 APPLICATIONS
 NITROGEN BAL.  : SOIL-N & N-UPTAKE SIMULATION; NO N-FIXATION
 N-FERTILIZER   :      323 kg/ha IN     3 APPLICATIONS
 RESIDUE/MANURE : INITIAL :     0 kg/ha ;    2222 kg/ha IN     1 APPLICATIONS
 ENVIRONM. OPT. : DAYL=    0.00  SRAD=    0.00  TMAX=    0.00  TMIN=    0.00
                  RAIN=    0.00  CO2 =    0.00  DEW =    0.00  WIND=    0.00
 SIMULATION OPT : WATER   :Y  NITROGEN:Y  N-FIX:N  PHOSPH :N  PESTS  :N
                  PHOTO   :C  ET      :R  INFIL:S  HYDROL :R  SOM    :G
                  CO2 418ppm  NSWIT   :1  EVAP :R  SOIL   :2  STEMP  :D
 MANAGEMENT OPT : PLANTING:R  IRRIG   :R  FERT :R  RESIDUE:R  HARVEST:M
                  WEATHER :M  TILLAGE :Y

*SUMMARY OF SOIL AND GENETIC INPUT PARAMETERS

   SOIL LOWER UPPER   SAT  EXTR  INIT   ROOT   BULK     pH    NO3    NH4    ORG
  DEPTH LIMIT LIMIT    SW    SW    SW   DIST   DENS                          C
   cm   cm3/cm3    cm3/cm3    cm3/cm3         g/cm3         ugN/g  ugN/g     %
-------------------------------------------------------------------------------
  0-  5 0.143 0.204 0.268 0.061 0.172   1.00   1.35   8.50  29.00  29.00   1.08
  5- 15 0.143 0.204 0.268 0.061 0.172   1.00   1.35   8.50  29.00  29.00   1.08
 15- 30 0.143 0.204 0.268 0.061 0.172   1.00   1.35   8.50  29.00  29.00   1.08
 30- 45 0.166 0.234 0.274 0.068 0.225   0.41   1.58   8.50  27.00  16.00   0.80
 45- 60 0.166 0.234 0.274 0.068 0.225   0.41   1.58   8.50  27.00  16.00   0.80
 60- 90 0.155 0.227 0.276 0.072 0.207   0.22   1.50   7.90  53.00  33.00   0.87
 90-120 0.188 0.263 0.308 0.075 0.263   0.12   1.38   8.00   0.01   0.01   0.40

TOT-120  19.6  27.8  33.8   8.3  26.0  <--cm   -  kg/ha-->  484.0  341.8 137370
SOIL ALBEDO    : 0.13      EVAPORATION LIMIT : 6.00         MIN. FACTOR  : 1.00
RUNOFF CURVE # :61.00      DRAINAGE RATE     : 0.60         FERT. FACTOR : 1.00

 Wheat            CULTIVAR: 474812-ENTRY 6            ECOTYPE: CI0700
   P1V   P1D    P5    G1    G2    G3 PHINT
   2.0  35.6 569.3  22.1  55.7  4.02  96.6


*SIMULATED CROP AND SOIL STATUS AT MAIN DEVELOPMENT STAGES
  
 RUN NO.      6   ROOTS ANATOMY                                               

 ...... DATE ......  GROWTH STAGE BIOMASS   LEAF       CROP N      STRESS
 YEARDOY DOM MON DAP ............. kg/ha AREA NUMBER  kg/ha   %   H2O    N
 2022327  23 Nov   0 7 Sowing         0  0.00   0.0     0   0.0  0.00  0.00
 2022328  24 Nov   1 8 Germinate      0  0.00   0.0     0   0.0  0.00  0.00
 2022330  26 Nov   3 9 Emergence      0  0.00   0.0     0   0.0  0.00  0.00
 2023029  29 Jan  67 1 Term Spklt  1905  3.10  12.0    88   4.6  0.25  0.07
 2023047  16 Feb  85 2 End Veg     3717  5.35  14.9   124   3.3  0.04  0.00
 2023059  28 Feb  97 3 End Ear Gr  6442  4.84  14.9   120   1.9  0.00  0.00
 2023074  15 Mar 112 4 Beg Gr Fil 10797  3.89  14.9   118   1.1  0.09  0.00
 2023104  14 Apr 142 5 End Gr Fil 19435  1.26  14.9   203   1.0  0.19  0.00
 2023104  14 Apr 142 6 Harvest    19435  1.26  14.9   203   1.0  0.71  0.00
  

*MAIN GROWTH AND DEVELOPMENT VARIABLES

@     VARIABLE                             SIMULATED     MEASURED
      --------                             ---------     --------
      Emergence (DAP)                            3            7
      Anthesis (DAP)                           101          100
      Maturity (DAP)                           142          143
      Product wt (kg dm/ha;no loss)           8336         6947
      Product unit weight (g dm)             0.049        0.042
      Product number (no/m2)                 16879        16489
      Product number (no/group)               18.9        -99.0
      Product harvest index (ratio)           0.43         0.39
      Maximum leaf area index                  5.4          5.7
      Final leaf number (one axis)            14.9        -99.0
      Final shoot number (#/m2)                894          -99
      Canopy (tops) wt (kg dm/ha)            19435        17928
      Vegetative wt (kg dm/ha)               11099        10981
      Root wt (kg dm/ha)                      1020          -99
      Assimilate wt (kg dm/ha)               21486          -99
      Senesced wt (kg dm/ha)                   351          -99
      Reserves wt (kg dm/ha)                  5363          -99
      N uptake (kg/ha)                       223.7        -99.0
      N senesced (kg/ha)                       4.9        -99.0
      Above-ground N (kg/ha)                 202.6        -99.0
      Root N (kg/ha)                          17.0        -99.0
      Vegetative N (kg/ha)                    42.4        -99.0
      Product N (kg/ha)                      160.2        133.9
      Product N harvest index (ratio)         0.79       -99.00
      Product N (%)                            1.9          1.9
      Vegetative N (%)                         0.4        -99.0
      Leaf+stem wt,anthesis (kg dm/ha)        7464          -99
      Leaf+stem N,anthesis (kg/ha)           118.8        -99.0
      Leaf N,anthesis (%)                      3.0        -99.0

*ENVIRONMENTAL AND STRESS FACTORS

 |-----Development Phase------|-------------Environment--------------|----------------Stress-----------------|
                              |--------Average-------|---Cumulative--|         (0=Min, 1=Max Stress)         |
                         Time  Temp  Temp Solar Photop         Evapo |----Water---|--Nitrogen--|--Phosphorus-|
                         Span   Max   Min   Rad  [day]   Rain  Trans  Photo         Photo         Photo
                         days    °C    °C MJ/m2     hr     mm     mm  synth Growth ' synth Growth  synth Growth
--------------------------------------------------------------------------------------------------------------
 Germinate  - Term Spklt   64  26.2   7.1  14.4  11.36   10.0  105.2  0.248  0.346  0.070  0.070 -99.00 -99.00
 Term Spklt - End Veg      18  25.1   5.9  15.8  11.81    3.6   54.1  0.037  0.087  0.000  0.000 -99.00 -99.00
 End Veg    - End Ear Gr   12  23.8   8.3  15.7  12.14    8.6   37.0  0.000  0.000  0.000  0.000 -99.00 -99.00
 End Ear Gr - Beg Gr Fil   15  28.3   7.3  20.5  12.49    0.1   58.4  0.094  0.146  0.000  0.000 -99.00 -99.00
 Beg Gr Fil - End Gr Fil   30  29.0   8.9  23.3  13.11   65.8  116.7  0.193  0.231  0.000  0.000 -99.00 -99.00
  
 Germinate  - End Gr Fil  139  26.7   7.4  17.3  11.99   88.1  371.4  0.171  0.236  0.032  0.032 -99.00 -99.00
--------------------------------------------------------------------------------------------------------------


*RESOURCE PRODUCTIVITY

 Growing season length: 139 days 

 Precipitation during growth season         88.1 mm[rain]
   Dry Matter Productivity                 22.06 kg[DM]/m3[rain]          =  220.6 kg[DM]/ha per mm[rain]
   Yield Productivity                       9.46 kg[grain yield]/m3[rain] =   94.6 kg[yield]/ha per mm[rain]

 Evapotranspiration during growth season   371.4 mm[ET]
   Dry Matter Productivity                  5.23 kg[DM]/m3[ET]            =   52.3 kg[DM]/ha per mm[ET]
   Yield Productivity                       2.24 kg[grain yield]/m3[ET]   =   22.4 kg[yield]/ha per mm[ET]

 Transpiration during growth season        310.8 mm[EP]
   Dry Matter Productivity                  6.25 kg[DM]/m3[EP]            =   62.5 kg[DM]/ha per mm[EP]
   Yield Productivity                       2.68 kg[grain yield]/m3[EP]   =   26.8 kg[yield]/ha per mm[EP]

 Irrigation during growing season          525.1 mm[irrig]
   Dry Matter Productivity                  3.70 kg[DM]/m3[irrig]         =   37.0 kg[DM]/ha per mm[irrig]
   Yield Productivity                       1.59 kg[grain yield]/m3[irrig]=   15.9 kg[yield]/ha per mm[irrig]

 N applied during growing season           323.0 kg[N applied]/ha
   Dry Matter Productivity                  60.2 kg[DM]/kg[N applied]
   Yield Productivity                       25.8 kg[yield]/kg[N applied]

 N uptake during growing season            223.7 kg[N uptake]/ha
   Dry Matter Productivity                  86.9 kg[DM]/kg[N uptake]
   Yield Productivity                       37.3 kg[yield]/kg[N uptake]

--------------------------------------------------------------------------------------------------------------

          WHEAT YIELD :     8336 kg/ha    [Dry weight] 

**************************************************************************************************************
  

*DSSAT Cropping System Model Ver. 4.8.2.000 -release  AUG 22, 2025 15:36:35

*RUN   7        : WW23_G-7                  CSCER048 CIOB2301    7
 MODEL          : CSCER048 - Wheat
 EXPERIMENT     : CIOB2301 WH ROOTS ANATOMY
 DATA PATH      : C:\DSSAT48\Wheat\
 TREATMENT  7   : WW23_G-7                  CSCER048


 CROP           : Wheat            CULTIVAR : ENTRY 7          ECOTYPE :CI0701
 STARTING DATE  : SEP  1 2022
 PLANTING DATE  : NOV 23 2022      PLANTS/m2 :   137.0    ROW SPACING :  20.cm
 WEATHER        : CIOB   2022
 SOIL           : CCENEB2301     TEXTURE : C     -   CIMMYT CENEB 710
 SOIL INIT COND : DEPTH:120cm EXTR. H2O: 82.8mm  NO3:484.0kg/ha  NH4:341.8kg/ha
 WATER BALANCE  : IRRIGATE ON REPORTED DATE(S)
 IRRIGATION     :      525 mm IN     9 APPLICATIONS
 NITROGEN BAL.  : SOIL-N & N-UPTAKE SIMULATION; NO N-FIXATION
 N-FERTILIZER   :      323 kg/ha IN     3 APPLICATIONS
 RESIDUE/MANURE : INITIAL :     0 kg/ha ;    2222 kg/ha IN     1 APPLICATIONS
 ENVIRONM. OPT. : DAYL=    0.00  SRAD=    0.00  TMAX=    0.00  TMIN=    0.00
                  RAIN=    0.00  CO2 =    0.00  DEW =    0.00  WIND=    0.00
 SIMULATION OPT : WATER   :Y  NITROGEN:Y  N-FIX:N  PHOSPH :N  PESTS  :N
                  PHOTO   :C  ET      :R  INFIL:S  HYDROL :R  SOM    :G
                  CO2 418ppm  NSWIT   :1  EVAP :R  SOIL   :2  STEMP  :D
 MANAGEMENT OPT : PLANTING:R  IRRIG   :R  FERT :R  RESIDUE:R  HARVEST:M
                  WEATHER :M  TILLAGE :Y

*SUMMARY OF SOIL AND GENETIC INPUT PARAMETERS

   SOIL LOWER UPPER   SAT  EXTR  INIT   ROOT   BULK     pH    NO3    NH4    ORG
  DEPTH LIMIT LIMIT    SW    SW    SW   DIST   DENS                          C
   cm   cm3/cm3    cm3/cm3    cm3/cm3         g/cm3         ugN/g  ugN/g     %
-------------------------------------------------------------------------------
  0-  5 0.143 0.204 0.268 0.061 0.172   1.00   1.35   8.50  29.00  29.00   1.08
  5- 15 0.143 0.204 0.268 0.061 0.172   1.00   1.35   8.50  29.00  29.00   1.08
 15- 30 0.143 0.204 0.268 0.061 0.172   1.00   1.35   8.50  29.00  29.00   1.08
 30- 45 0.166 0.234 0.274 0.068 0.225   0.41   1.58   8.50  27.00  16.00   0.80
 45- 60 0.166 0.234 0.274 0.068 0.225   0.41   1.58   8.50  27.00  16.00   0.80
 60- 90 0.155 0.227 0.276 0.072 0.207   0.22   1.50   7.90  53.00  33.00   0.87
 90-120 0.188 0.263 0.308 0.075 0.263   0.12   1.38   8.00   0.01   0.01   0.40

TOT-120  19.6  27.8  33.8   8.3  26.0  <--cm   -  kg/ha-->  484.0  341.8 137370
SOIL ALBEDO    : 0.13      EVAPORATION LIMIT : 6.00         MIN. FACTOR  : 1.00
RUNOFF CURVE # :61.00      DRAINAGE RATE     : 0.60         FERT. FACTOR : 1.00

 Wheat            CULTIVAR: 748117-ENTRY 7            ECOTYPE: CI0701
   P1V   P1D    P5    G1    G2    G3 PHINT
   2.0  49.2 565.5  23.6  41.2  5.44  75.9


*SIMULATED CROP AND SOIL STATUS AT MAIN DEVELOPMENT STAGES
  
 RUN NO.      7   ROOTS ANATOMY                                               

 ...... DATE ......  GROWTH STAGE BIOMASS   LEAF       CROP N      STRESS
 YEARDOY DOM MON DAP ............. kg/ha AREA NUMBER  kg/ha   %   H2O    N
 2022327  23 Nov   0 7 Sowing         0  0.00   0.0     0   0.0  0.00  0.00
 2022328  24 Nov   1 8 Germinate      0  0.00   0.0     0   0.0  0.00  0.00
 2022330  26 Nov   3 9 Emergence      0  0.00   0.0     0   0.0  0.00  0.00
 2023028  28 Jan  66 1 Term Spklt  1766  2.56  14.8    80   4.5  0.24  0.11
 2023046  15 Feb  84 2 End Veg     3891  4.93  18.5   128   3.3  0.05  0.00
 2023059  28 Feb  97 3 End Ear Gr  6213  4.10  18.5   125   2.0  0.00  0.00
 2023074  15 Mar 112 4 Beg Gr Fil  9486  3.23  18.5   124   1.3  0.10  0.00
 2023103  13 Apr 141 5 End Gr Fil 16008  0.74  18.5   178   1.1  0.11  0.00
 2023103  13 Apr 141 6 Harvest    16008  0.74  18.5   178   1.1  0.39  0.00
  

*MAIN GROWTH AND DEVELOPMENT VARIABLES

@     VARIABLE                             SIMULATED     MEASURED
      --------                             ---------     --------
      Emergence (DAP)                            3            7
      Anthesis (DAP)                           100          101
      Maturity (DAP)                           141          142
      Product wt (kg dm/ha;no loss)           6605         6650
      Product unit weight (g dm)             0.041        0.041
      Product number (no/m2)                 16031        16031
      Product number (no/group)               24.6        -99.0
      Product harvest index (ratio)           0.41         0.41
      Maximum leaf area index                  4.9          6.7
      Final leaf number (one axis)            18.5        -99.0
      Final shoot number (#/m2)                652          -99
      Canopy (tops) wt (kg dm/ha)            16008        16066
      Vegetative wt (kg dm/ha)                9404         9416
      Root wt (kg dm/ha)                       950          -99
      Assimilate wt (kg dm/ha)               18009          -99
      Senesced wt (kg dm/ha)                   419          -99
      Reserves wt (kg dm/ha)                  4294          -99
      N uptake (kg/ha)                       199.4        -99.0
      N senesced (kg/ha)                       5.8        -99.0
      Above-ground N (kg/ha)                 178.4        -99.0
      Root N (kg/ha)                          16.0        -99.0
      Vegetative N (kg/ha)                    38.3        -99.0
      Product N (kg/ha)                      140.1        123.9
      Product N harvest index (ratio)         0.79       -99.00
      Product N (%)                            2.1          1.9
      Vegetative N (%)                         0.4        -99.0
      Leaf+stem wt,anthesis (kg dm/ha)        6789          -99
      Leaf+stem N,anthesis (kg/ha)           124.4        -99.0
      Leaf N,anthesis (%)                      3.0        -99.0

*ENVIRONMENTAL AND STRESS FACTORS

 |-----Development Phase------|-------------Environment--------------|----------------Stress-----------------|
                              |--------Average-------|---Cumulative--|         (0=Min, 1=Max Stress)         |
                         Time  Temp  Temp Solar Photop         Evapo |----Water---|--Nitrogen--|--Phosphorus-|
                         Span   Max   Min   Rad  [day]   Rain  Trans  Photo         Photo         Photo
                         days    °C    °C MJ/m2     hr     mm     mm  synth Growth ' synth Growth  synth Growth
--------------------------------------------------------------------------------------------------------------
 Germinate  - Term Spklt   63  26.2   7.1  14.3  11.36   10.0   94.9  0.239  0.334  0.107  0.107 -99.00 -99.00
 Term Spklt - End Veg      18  25.3   5.7  15.8  11.78    3.6   52.4  0.051  0.111  0.000  0.000 -99.00 -99.00
 End Veg    - End Ear Gr   13  23.7   8.2  15.9  12.13    8.6   40.5  0.000  0.014  0.000  0.000 -99.00 -99.00
 End Ear Gr - Beg Gr Fil   15  28.3   7.3  20.5  12.49    0.1   57.9  0.102  0.155  0.000  0.000 -99.00 -99.00
 Beg Gr Fil - End Gr Fil   29  29.0   8.8  23.3  13.09   65.8  113.4  0.109  0.150  0.000  0.000 -99.00 -99.00
  
 Germinate  - End Gr Fil  138  26.7   7.4  17.2  11.97   88.1  359.2  0.150  0.216  0.049  0.049 -99.00 -99.00
--------------------------------------------------------------------------------------------------------------


*RESOURCE PRODUCTIVITY

 Growing season length: 138 days 

 Precipitation during growth season         88.1 mm[rain]
   Dry Matter Productivity                 18.17 kg[DM]/m3[rain]          =  181.7 kg[DM]/ha per mm[rain]
   Yield Productivity                       7.50 kg[grain yield]/m3[rain] =   75.0 kg[yield]/ha per mm[rain]

 Evapotranspiration during growth season   359.2 mm[ET]
   Dry Matter Productivity                  4.46 kg[DM]/m3[ET]            =   44.6 kg[DM]/ha per mm[ET]
   Yield Productivity                       1.84 kg[grain yield]/m3[ET]   =   18.4 kg[yield]/ha per mm[ET]

 Transpiration during growth season        280.8 mm[EP]
   Dry Matter Productivity                  5.70 kg[DM]/m3[EP]            =   57.0 kg[DM]/ha per mm[EP]
   Yield Productivity                       2.35 kg[grain yield]/m3[EP]   =   23.5 kg[yield]/ha per mm[EP]

 Irrigation during growing season          525.1 mm[irrig]
   Dry Matter Productivity                  3.05 kg[DM]/m3[irrig]         =   30.5 kg[DM]/ha per mm[irrig]
   Yield Productivity                       1.26 kg[grain yield]/m3[irrig]=   12.6 kg[yield]/ha per mm[irrig]

 N applied during growing season           323.0 kg[N applied]/ha
   Dry Matter Productivity                  49.6 kg[DM]/kg[N applied]
   Yield Productivity                       20.4 kg[yield]/kg[N applied]

 N uptake during growing season            199.4 kg[N uptake]/ha
   Dry Matter Productivity                  80.3 kg[DM]/kg[N uptake]
   Yield Productivity                       33.1 kg[yield]/kg[N uptake]

--------------------------------------------------------------------------------------------------------------

          WHEAT YIELD :     6605 kg/ha    [Dry weight] 

**************************************************************************************************************
  

*DSSAT Cropping System Model Ver. 4.8.2.000 -release  AUG 22, 2025 15:36:35

*RUN   8        : WW23_G-8                  CSCER048 CIOB2301    8
 MODEL          : CSCER048 - Wheat
 EXPERIMENT     : CIOB2301 WH ROOTS ANATOMY
 DATA PATH      : C:\DSSAT48\Wheat\
 TREATMENT  8   : WW23_G-8                  CSCER048


 CROP           : Wheat            CULTIVAR : ENTRY 8          ECOTYPE :CI0700
 STARTING DATE  : SEP  1 2022
 PLANTING DATE  : NOV 23 2022      PLANTS/m2 :   137.0    ROW SPACING :  20.cm
 WEATHER        : CIOB   2022
 SOIL           : CCENEB2301     TEXTURE : C     -   CIMMYT CENEB 710
 SOIL INIT COND : DEPTH:120cm EXTR. H2O: 82.8mm  NO3:484.0kg/ha  NH4:341.8kg/ha
 WATER BALANCE  : IRRIGATE ON REPORTED DATE(S)
 IRRIGATION     :      525 mm IN     9 APPLICATIONS
 NITROGEN BAL.  : SOIL-N & N-UPTAKE SIMULATION; NO N-FIXATION
 N-FERTILIZER   :      323 kg/ha IN     3 APPLICATIONS
 RESIDUE/MANURE : INITIAL :     0 kg/ha ;    2222 kg/ha IN     1 APPLICATIONS
 ENVIRONM. OPT. : DAYL=    0.00  SRAD=    0.00  TMAX=    0.00  TMIN=    0.00
                  RAIN=    0.00  CO2 =    0.00  DEW =    0.00  WIND=    0.00
 SIMULATION OPT : WATER   :Y  NITROGEN:Y  N-FIX:N  PHOSPH :N  PESTS  :N
                  PHOTO   :C  ET      :R  INFIL:S  HYDROL :R  SOM    :G
                  CO2 418ppm  NSWIT   :1  EVAP :R  SOIL   :2  STEMP  :D
 MANAGEMENT OPT : PLANTING:R  IRRIG   :R  FERT :R  RESIDUE:R  HARVEST:M
                  WEATHER :M  TILLAGE :Y

*SUMMARY OF SOIL AND GENETIC INPUT PARAMETERS

   SOIL LOWER UPPER   SAT  EXTR  INIT   ROOT   BULK     pH    NO3    NH4    ORG
  DEPTH LIMIT LIMIT    SW    SW    SW   DIST   DENS                          C
   cm   cm3/cm3    cm3/cm3    cm3/cm3         g/cm3         ugN/g  ugN/g     %
-------------------------------------------------------------------------------
  0-  5 0.143 0.204 0.268 0.061 0.172   1.00   1.35   8.50  29.00  29.00   1.08
  5- 15 0.143 0.204 0.268 0.061 0.172   1.00   1.35   8.50  29.00  29.00   1.08
 15- 30 0.143 0.204 0.268 0.061 0.172   1.00   1.35   8.50  29.00  29.00   1.08
 30- 45 0.166 0.234 0.274 0.068 0.225   0.41   1.58   8.50  27.00  16.00   0.80
 45- 60 0.166 0.234 0.274 0.068 0.225   0.41   1.58   8.50  27.00  16.00   0.80
 60- 90 0.155 0.227 0.276 0.072 0.207   0.22   1.50   7.90  53.00  33.00   0.87
 90-120 0.188 0.263 0.308 0.075 0.263   0.12   1.38   8.00   0.01   0.01   0.40

TOT-120  19.6  27.8  33.8   8.3  26.0  <--cm   -  kg/ha-->  484.0  341.8 137370
SOIL ALBEDO    : 0.13      EVAPORATION LIMIT : 6.00         MIN. FACTOR  : 1.00
RUNOFF CURVE # :61.00      DRAINAGE RATE     : 0.60         FERT. FACTOR : 1.00

 Wheat            CULTIVAR: 748118-ENTRY 8            ECOTYPE: CI0700
   P1V   P1D    P5    G1    G2    G3 PHINT
   2.0  43.5 582.3  19.8  39.5  4.89 106.3


*SIMULATED CROP AND SOIL STATUS AT MAIN DEVELOPMENT STAGES
  
 RUN NO.      8   ROOTS ANATOMY                                               

 ...... DATE ......  GROWTH STAGE BIOMASS   LEAF       CROP N      STRESS
 YEARDOY DOM MON DAP ............. kg/ha AREA NUMBER  kg/ha   %   H2O    N
 2022327  23 Nov   0 7 Sowing         0  0.00   0.0     0   0.0  0.00  0.00
 2022328  24 Nov   1 8 Germinate      0  0.00   0.0     0   0.0  0.00  0.00
 2022330  26 Nov   3 9 Emergence      0  0.00   0.0     0   0.0  0.00  0.00
 2023032   1 Feb  70 1 Term Spklt  2252  3.72  11.4   106   4.7  0.24  0.06
 2023050  19 Feb  88 2 End Veg     4019  6.00  14.1   136   3.4  0.03  0.00
 2023063   4 Mar 101 3 End Ear Gr  7223  5.39  14.1   131   1.8  0.01  0.00
 2023076  17 Mar 114 4 Beg Gr Fil 10996  4.38  14.1   130   1.2  0.09  0.00
 2023107  17 Apr 145 5 End Gr Fil 19553  1.22  14.1   150   0.8  0.27  0.00
 2023107  17 Apr 145 6 Harvest    19553  1.22  14.1   150   0.8  0.79  0.00
  

*MAIN GROWTH AND DEVELOPMENT VARIABLES

@     VARIABLE                             SIMULATED     MEASURED
      --------                             ---------     --------
      Emergence (DAP)                            3            7
      Anthesis (DAP)                           104          104
      Maturity (DAP)                           145          146
      Product wt (kg dm/ha;no loss)           5485         6393
      Product unit weight (g dm)             0.035        0.041
      Product number (no/m2)                 15545        15446
      Product number (no/group)               19.1        -99.0
      Product harvest index (ratio)           0.28         0.31
      Maximum leaf area index                  6.0          5.7
      Final leaf number (one axis)            14.1        -99.0
      Final shoot number (#/m2)                812          -99
      Canopy (tops) wt (kg dm/ha)            19553        20909
      Vegetative wt (kg dm/ha)               14068        14516
      Root wt (kg dm/ha)                      1087          -99
      Assimilate wt (kg dm/ha)               21785          -99
      Senesced wt (kg dm/ha)                   417          -99
      Reserves wt (kg dm/ha)                  8085          -99
      N uptake (kg/ha)                       172.9        -99.0
      N senesced (kg/ha)                       5.8        -99.0
      Above-ground N (kg/ha)                 149.6        -99.0
      Root N (kg/ha)                          18.3        -99.0
      Vegetative N (kg/ha)                    44.2        -99.0
      Product N (kg/ha)                      105.4        141.9
      Product N harvest index (ratio)         0.70       -99.00
      Product N (%)                            1.9          2.2
      Vegetative N (%)                         0.3        -99.0
      Leaf+stem wt,anthesis (kg dm/ha)        7770          -99
      Leaf+stem N,anthesis (kg/ha)           130.5        -99.0
      Leaf N,anthesis (%)                      3.0        -99.0

*ENVIRONMENTAL AND STRESS FACTORS

 |-----Development Phase------|-------------Environment--------------|----------------Stress-----------------|
                              |--------Average-------|---Cumulative--|         (0=Min, 1=Max Stress)         |
                         Time  Temp  Temp Solar Photop         Evapo |----Water---|--Nitrogen--|--Phosphorus-|
                         Span   Max   Min   Rad  [day]   Rain  Trans  Photo         Photo         Photo
                         days    °C    °C MJ/m2     hr     mm     mm  synth Growth ' synth Growth  synth Growth
--------------------------------------------------------------------------------------------------------------
 Germinate  - Term Spklt   67  26.0   7.0  14.4  11.38   10.0  115.5  0.238  0.336  0.064  0.064 -99.00 -99.00
 Term Spklt - End Veg      18  25.2   6.5  15.4  11.87   11.8   53.0  0.033  0.057  0.000  0.000 -99.00 -99.00
 End Veg    - End Ear Gr   13  23.7   7.2  17.2  12.23    0.5   42.9  0.012  0.039  0.000  0.000 -99.00 -99.00
 End Ear Gr - Beg Gr Fil   13  29.7   8.9  20.2  12.57   13.7   51.2  0.089  0.122  0.000  0.000 -99.00 -99.00
 Beg Gr Fil - End Gr Fil   31  29.3   8.7  24.3  13.18   52.1  114.6  0.267  0.306  0.000  0.000 -99.00 -99.00
  
 Germinate  - End Gr Fil  142  26.8   7.5  17.5  12.02   88.1  377.1  0.184  0.247  0.030  0.030 -99.00 -99.00
--------------------------------------------------------------------------------------------------------------


*RESOURCE PRODUCTIVITY

 Growing season length: 142 days 

 Precipitation during growth season         88.1 mm[rain]
   Dry Matter Productivity                 22.19 kg[DM]/m3[rain]          =  221.9 kg[DM]/ha per mm[rain]
   Yield Productivity                       6.23 kg[grain yield]/m3[rain] =   62.3 kg[yield]/ha per mm[rain]

 Evapotranspiration during growth season   377.1 mm[ET]
   Dry Matter Productivity                  5.18 kg[DM]/m3[ET]            =   51.8 kg[DM]/ha per mm[ET]
   Yield Productivity                       1.45 kg[grain yield]/m3[ET]   =   14.5 kg[yield]/ha per mm[ET]

 Transpiration during growth season        321.1 mm[EP]
   Dry Matter Productivity                  6.09 kg[DM]/m3[EP]            =   60.9 kg[DM]/ha per mm[EP]
   Yield Productivity                       1.71 kg[grain yield]/m3[EP]   =   17.1 kg[yield]/ha per mm[EP]

 Irrigation during growing season          525.1 mm[irrig]
   Dry Matter Productivity                  3.72 kg[DM]/m3[irrig]         =   37.2 kg[DM]/ha per mm[irrig]
   Yield Productivity                       1.04 kg[grain yield]/m3[irrig]=   10.4 kg[yield]/ha per mm[irrig]

 N applied during growing season           323.0 kg[N applied]/ha
   Dry Matter Productivity                  60.5 kg[DM]/kg[N applied]
   Yield Productivity                       17.0 kg[yield]/kg[N applied]

 N uptake during growing season            172.9 kg[N uptake]/ha
   Dry Matter Productivity                 113.1 kg[DM]/kg[N uptake]
   Yield Productivity                       31.7 kg[yield]/kg[N uptake]

--------------------------------------------------------------------------------------------------------------

          WHEAT YIELD :     5485 kg/ha    [Dry weight] 

**************************************************************************************************************
  

*DSSAT Cropping System Model Ver. 4.8.2.000 -release  AUG 22, 2025 15:36:35

*RUN   9        : WW23_G-9                  CSCER048 CIOB2301    9
 MODEL          : CSCER048 - Wheat
 EXPERIMENT     : CIOB2301 WH ROOTS ANATOMY
 DATA PATH      : C:\DSSAT48\Wheat\
 TREATMENT  9   : WW23_G-9                  CSCER048


 CROP           : Wheat            CULTIVAR : ENTRY 9          ECOTYPE :CI0700
 STARTING DATE  : SEP  1 2022
 PLANTING DATE  : NOV 23 2022      PLANTS/m2 :   137.0    ROW SPACING :  20.cm
 WEATHER        : CIOB   2022
 SOIL           : CCENEB2301     TEXTURE : C     -   CIMMYT CENEB 710
 SOIL INIT COND : DEPTH:120cm EXTR. H2O: 82.8mm  NO3:484.0kg/ha  NH4:341.8kg/ha
 WATER BALANCE  : IRRIGATE ON REPORTED DATE(S)
 IRRIGATION     :      525 mm IN     9 APPLICATIONS
 NITROGEN BAL.  : SOIL-N & N-UPTAKE SIMULATION; NO N-FIXATION
 N-FERTILIZER   :      323 kg/ha IN     3 APPLICATIONS
 RESIDUE/MANURE : INITIAL :     0 kg/ha ;    2222 kg/ha IN     1 APPLICATIONS
 ENVIRONM. OPT. : DAYL=    0.00  SRAD=    0.00  TMAX=    0.00  TMIN=    0.00
                  RAIN=    0.00  CO2 =    0.00  DEW =    0.00  WIND=    0.00
 SIMULATION OPT : WATER   :Y  NITROGEN:Y  N-FIX:N  PHOSPH :N  PESTS  :N
                  PHOTO   :C  ET      :R  INFIL:S  HYDROL :R  SOM    :G
                  CO2 418ppm  NSWIT   :1  EVAP :R  SOIL   :2  STEMP  :D
 MANAGEMENT OPT : PLANTING:R  IRRIG   :R  FERT :R  RESIDUE:R  HARVEST:M
                  WEATHER :M  TILLAGE :Y

*SUMMARY OF SOIL AND GENETIC INPUT PARAMETERS

   SOIL LOWER UPPER   SAT  EXTR  INIT   ROOT   BULK     pH    NO3    NH4    ORG
  DEPTH LIMIT LIMIT    SW    SW    SW   DIST   DENS                          C
   cm   cm3/cm3    cm3/cm3    cm3/cm3         g/cm3         ugN/g  ugN/g     %
-------------------------------------------------------------------------------
  0-  5 0.143 0.204 0.268 0.061 0.172   1.00   1.35   8.50  29.00  29.00   1.08
  5- 15 0.143 0.204 0.268 0.061 0.172   1.00   1.35   8.50  29.00  29.00   1.08
 15- 30 0.143 0.204 0.268 0.061 0.172   1.00   1.35   8.50  29.00  29.00   1.08
 30- 45 0.166 0.234 0.274 0.068 0.225   0.41   1.58   8.50  27.00  16.00   0.80
 45- 60 0.166 0.234 0.274 0.068 0.225   0.41   1.58   8.50  27.00  16.00   0.80
 60- 90 0.155 0.227 0.276 0.072 0.207   0.22   1.50   7.90  53.00  33.00   0.87
 90-120 0.188 0.263 0.308 0.075 0.263   0.12   1.38   8.00   0.01   0.01   0.40

TOT-120  19.6  27.8  33.8   8.3  26.0  <--cm   -  kg/ha-->  484.0  341.8 137370
SOIL ALBEDO    : 0.13      EVAPORATION LIMIT : 6.00         MIN. FACTOR  : 1.00
RUNOFF CURVE # :61.00      DRAINAGE RATE     : 0.60         FERT. FACTOR : 1.00

 Wheat            CULTIVAR: 474804-ENTRY 9            ECOTYPE: CI0700
   P1V   P1D    P5    G1    G2    G3 PHINT
   2.0  41.2 570.2  21.0  43.2  4.03  99.9


*SIMULATED CROP AND SOIL STATUS AT MAIN DEVELOPMENT STAGES
  
 RUN NO.      9   ROOTS ANATOMY                                               

 ...... DATE ......  GROWTH STAGE BIOMASS   LEAF       CROP N      STRESS
 YEARDOY DOM MON DAP ............. kg/ha AREA NUMBER  kg/ha   %   H2O    N
 2022327  23 Nov   0 7 Sowing         0  0.00   0.0     0   0.0  0.00  0.00
 2022328  24 Nov   1 8 Germinate      0  0.00   0.0     0   0.0  0.00  0.00
 2022330  26 Nov   3 9 Emergence      0  0.00   0.0     0   0.0  0.00  0.00
 2023031  31 Jan  69 1 Term Spklt  2120  3.45  11.9    99   4.7  0.24  0.07
 2023049  18 Feb  87 2 End Veg     3899  5.70  14.7   131   3.4  0.03  0.00
 2023062   3 Mar 100 3 End Ear Gr  6986  5.11  14.7   127   1.8  0.00  0.00
 2023076  17 Mar 114 4 Beg Gr Fil 11025  4.12  14.7   125   1.1  0.10  0.00
 2023106  16 Apr 144 5 End Gr Fil 19465  1.19  14.7   163   0.8  0.25  0.00
 2023106  16 Apr 144 6 Harvest    19465  1.19  14.7   163   0.8  0.76  0.00
  

*MAIN GROWTH AND DEVELOPMENT VARIABLES

@     VARIABLE                             SIMULATED     MEASURED
      --------                             ---------     --------
      Emergence (DAP)                            3            7
      Anthesis (DAP)                           103          101
      Maturity (DAP)                           144          145
      Product wt (kg dm/ha;no loss)           6204         6560
      Product unit weight (g dm)             0.039        0.043
      Product number (no/m2)                 15918        15412
      Product number (no/group)               17.7        -99.0
      Product harvest index (ratio)           0.32         0.33
      Maximum leaf area index                  5.7          5.8
      Final leaf number (one axis)            14.7        -99.0
      Final shoot number (#/m2)                897          -99
      Canopy (tops) wt (kg dm/ha)            19465        20154
      Vegetative wt (kg dm/ha)               13260        13594
      Root wt (kg dm/ha)                      1061          -99
      Assimilate wt (kg dm/ha)               21628          -99
      Senesced wt (kg dm/ha)                   394          -99
      Reserves wt (kg dm/ha)                  7238          -99
      N uptake (kg/ha)                       185.3        -99.0
      N senesced (kg/ha)                       5.5        -99.0
      Above-ground N (kg/ha)                 162.9        -99.0
      Root N (kg/ha)                          17.8        -99.0
      Vegetative N (kg/ha)                    43.6        -99.0
      Product N (kg/ha)                      119.2        131.8
      Product N harvest index (ratio)         0.73       -99.00
      Product N (%)                            1.9          2.0
      Vegetative N (%)                         0.3        -99.0
[...]
   Dry Matter Productivity                  4.46 kg[DM]/m3[rain]          =   44.6 kg[DM]/ha per mm[rain]
   Yield Productivity                       1.49 kg[grain yield]/m3[rain] =   14.9 kg[yield]/ha per mm[rain]

 Evapotranspiration during growth season   105.5 mm[ET]
   Dry Matter Productivity                  3.73 kg[DM]/m3[ET]            =   37.3 kg[DM]/ha per mm[ET]
   Yield Productivity                       1.25 kg[grain yield]/m3[ET]   =   12.5 kg[yield]/ha per mm[ET]

 Transpiration during growth season         69.2 mm[EP]
   Dry Matter Productivity                  5.68 kg[DM]/m3[EP]            =   56.8 kg[DM]/ha per mm[EP]
   Yield Productivity                       1.90 kg[grain yield]/m3[EP]   =   19.0 kg[yield]/ha per mm[EP]

 Irrigation during growing season          120.0 mm[irrig]
   Dry Matter Productivity                  3.28 kg[DM]/m3[irrig]         =   32.8 kg[DM]/ha per mm[irrig]
   Yield Productivity                       1.10 kg[grain yield]/m3[irrig]=   11.0 kg[yield]/ha per mm[irrig]

 N applied during growing season           173.0 kg[N applied]/ha
   Dry Matter Productivity                  22.7 kg[DM]/kg[N applied]
   Yield Productivity                        7.6 kg[yield]/kg[N applied]

 N uptake during growing season             42.4 kg[N uptake]/ha
   Dry Matter Productivity                  92.7 kg[DM]/kg[N uptake]
   Yield Productivity                       31.0 kg[yield]/kg[N uptake]

--------------------------------------------------------------------------------------------------------------

          WHEAT YIELD :     1316 kg/ha    [Dry weight] 

**************************************************************************************************************
  

*DSSAT Cropping System Model Ver. 4.8.2.000 -release  AUG 22, 2025 15:36:38

*RUN  69        : DR23_G-13                 CSCER048 CIOB2302   13
 MODEL          : CSCER048 - Wheat
 EXPERIMENT     : CIOB2302 WH ROOTS ANATOMY DROUGHT
 DATA PATH      : C:\DSSAT48\Wheat\
 TREATMENT 13   : DR23_G-13                 CSCER048


 CROP           : Wheat            CULTIVAR : ENTRY 13         ECOTYPE :CI0701
 STARTING DATE  : SEP  1 2022
 PLANTING DATE  : DEC  3 2022      PLANTS/m2 :   150.0    ROW SPACING :  36.cm
 WEATHER        : CIOB   2022
 SOIL           : CCENEB2301     TEXTURE : C     -   CIMMYT CENEB 710
 SOIL INIT COND : DEPTH:120cm EXTR. H2O: 82.8mm  NO3:252.3kg/ha  NH4:205.5kg/ha
 WATER BALANCE  : IRRIGATE ON REPORTED DATE(S)
 IRRIGATION     :      120 mm IN     1 APPLICATIONS
 NITROGEN BAL.  : SOIL-N & N-UPTAKE SIMULATION; NO N-FIXATION
 N-FERTILIZER   :      173 kg/ha IN     2 APPLICATIONS
 RESIDUE/MANURE : INITIAL :     0 kg/ha ;    2222 kg/ha IN     1 APPLICATIONS
 ENVIRONM. OPT. : DAYL=    0.00  SRAD=    0.00  TMAX=    0.00  TMIN=    0.00
                  RAIN=    0.00  CO2 =    0.00  DEW =    0.00  WIND=    0.00
 SIMULATION OPT : WATER   :Y  NITROGEN:Y  N-FIX:N  PHOSPH :N  PESTS  :N
                  PHOTO   :C  ET      :R  INFIL:S  HYDROL :R  SOM    :G
                  CO2 418ppm  NSWIT   :1  EVAP :R  SOIL   :2  STEMP  :D
 MANAGEMENT OPT : PLANTING:R  IRRIG   :R  FERT :R  RESIDUE:R  HARVEST:M
                  WEATHER :M  TILLAGE :Y

*SUMMARY OF SOIL AND GENETIC INPUT PARAMETERS

   SOIL LOWER UPPER   SAT  EXTR  INIT   ROOT   BULK     pH    NO3    NH4    ORG
  DEPTH LIMIT LIMIT    SW    SW    SW   DIST   DENS                          C
   cm   cm3/cm3    cm3/cm3    cm3/cm3         g/cm3         ugN/g  ugN/g     %
-------------------------------------------------------------------------------
  0-  5 0.143 0.204 0.268 0.061 0.204   1.00   1.35   8.80  19.00  12.00   1.10
  5- 15 0.143 0.204 0.268 0.061 0.204   1.00   1.35   8.80  19.00  12.00   1.10
 15- 30 0.143 0.204 0.268 0.061 0.204   1.00   1.35   8.80  19.00  12.00   1.10
 30- 45 0.166 0.234 0.274 0.068 0.230   0.41   1.58   8.50  18.00  16.00   0.40
 45- 60 0.166 0.234 0.274 0.068 0.230   0.41   1.58   8.50  18.00  16.00   0.40
 60- 90 0.155 0.227 0.276 0.072 0.230   0.22   1.50   8.50  20.00  18.00   0.40
 90-120 0.188 0.263 0.308 0.075 0.263   0.12   1.38   8.00   0.01   0.01   0.40

TOT-120  19.6  27.8  33.8   8.3  27.8  <--cm   -  kg/ha-->  252.3  205.5  98070
SOIL ALBEDO    : 0.13      EVAPORATION LIMIT : 6.00         MIN. FACTOR  : 1.00
RUNOFF CURVE # :61.00      DRAINAGE RATE     : 0.60         FERT. FACTOR : 1.00

 Wheat            CULTIVAR: 542933-ENTRY 13           ECOTYPE: CI0701
   P1V   P1D    P5    G1    G2    G3 PHINT
   2.0  37.4 568.5  20.9  52.6  7.99  95.7


*SIMULATED CROP AND SOIL STATUS AT MAIN DEVELOPMENT STAGES
  
 RUN NO.     69   ROOTS ANATOMY DROUGHT                                       

 ...... DATE ......  GROWTH STAGE BIOMASS   LEAF       CROP N      STRESS
 YEARDOY DOM MON DAP ............. kg/ha AREA NUMBER  kg/ha   %   H2O    N
 2022337   3 Dec   0 7 Sowing         0  0.00   0.0     0   0.0  0.00  0.00
 2022338   4 Dec   1 8 Germinate      0  0.00   0.0     0   0.0  0.00  0.00
 2022339   5 Dec   2 9 Emergence      0  0.00   0.0     0   0.0  0.00  0.00
 2023029  29 Jan  57 1 Term Spklt   495  0.81  10.3    23   4.6  0.54  0.11
 2023047  16 Feb  75 2 End Veg      836  1.14  13.2    26   3.2  0.61  0.00
 2023060   1 Mar  88 3 End Ear Gr  1298  0.77  13.2    25   2.0  0.52  0.00
 2023074  15 Mar 102 4 Beg Gr Fil  1678  0.49  13.2    25   1.5  0.72  0.00
 2023104  14 Apr 132 5 End Gr Fil  3839  0.15  13.2    38   1.0  0.07  0.00
 2023104  14 Apr 132 6 Harvest     3839  0.15  13.2    38   1.0  0.00  0.00
  

*MAIN GROWTH AND DEVELOPMENT VARIABLES

@     VARIABLE                             SIMULATED     MEASURED
      --------                             ---------     --------
      Emergence (DAP)                            2            6
      Anthesis (DAP)                            91           86
      Maturity (DAP)                           132          118
      Product wt (kg dm/ha;no loss)           1437         3437
      Product unit weight (g dm)             0.053        0.039
      Product number (no/m2)                  2732         8856
      Product number (no/group)                8.4        -99.0
      Product harvest index (ratio)           0.37         0.41
      Maximum leaf area index                  1.1          4.6
      Final leaf number (one axis)            13.2        -99.0
      Final shoot number (#/m2)                323          -99
      Canopy (tops) wt (kg dm/ha)             3839         8377
      Vegetative wt (kg dm/ha)                2402         4940
      Root wt (kg dm/ha)                       302          -99
      Assimilate wt (kg dm/ha)                4525          -99
      Senesced wt (kg dm/ha)                   236          -99
      Reserves wt (kg dm/ha)                  1443          -99
      N uptake (kg/ha)                        44.5        -99.0
      N senesced (kg/ha)                       3.3        -99.0
      Above-ground N (kg/ha)                  37.7        -99.0
      Root N (kg/ha)                           5.1        -99.0
      Vegetative N (kg/ha)                     7.1        -99.0
      Product N (kg/ha)                       30.5         68.3
      Product N harvest index (ratio)         0.81       -99.00
      Product N (%)                            2.1          2.0
      Vegetative N (%)                         0.3        -99.0
      Leaf+stem wt,anthesis (kg dm/ha)        1389          -99
      Leaf+stem N,anthesis (kg/ha)            25.3        -99.0
      Leaf N,anthesis (%)                      3.0        -99.0

*ENVIRONMENTAL AND STRESS FACTORS

 |-----Development Phase------|-------------Environment--------------|----------------Stress-----------------|
                              |--------Average-------|---Cumulative--|         (0=Min, 1=Max Stress)         |
                         Time  Temp  Temp Solar Photop         Evapo |----Water---|--Nitrogen--|--Phosphorus-|
                         Span   Max   Min   Rad  [day]   Rain  Trans  Photo         Photo         Photo
                         days    °C    °C MJ/m2     hr     mm     mm  synth Growth ' synth Growth  synth Growth
--------------------------------------------------------------------------------------------------------------
 Germinate  - Term Spklt   55  25.7   6.5  14.4  11.36   10.0   28.9  0.538  0.631  0.111  0.111 -99.00 -99.00
 Term Spklt - End Veg      18  25.1   5.9  15.8  11.81    3.6   12.0  0.613  0.702  0.000  0.000 -99.00 -99.00
 End Veg    - End Ear Gr   13  23.5   8.2  15.0  12.15    8.6   15.2  0.521  0.624  0.000  0.000 -99.00 -99.00
 End Ear Gr - Beg Gr Fil   14  29.0   7.3  21.5  12.50    0.1    6.4  0.723  0.787  0.000  0.000 -99.00 -99.00
 Beg Gr Fil - End Gr Fil   30  29.0   8.9  23.3  13.11   65.8   41.4  0.075  0.168  0.000  0.000 -99.00 -99.00
  
 Germinate  - End Gr Fil  130  26.5   7.2  17.5  12.03   88.1  103.8  0.460  0.550  0.047  0.047 -99.00 -99.00
--------------------------------------------------------------------------------------------------------------


*RESOURCE PRODUCTIVITY

 Growing season length: 130 days 

 Precipitation during growth season         88.1 mm[rain]
   Dry Matter Productivity                  4.36 kg[DM]/m3[rain]          =   43.6 kg[DM]/ha per mm[rain]
   Yield Productivity                       1.63 kg[grain yield]/m3[rain] =   16.3 kg[yield]/ha per mm[rain]

 Evapotranspiration during growth season   103.8 mm[ET]
   Dry Matter Productivity                  3.70 kg[DM]/m3[ET]            =   37.0 kg[DM]/ha per mm[ET]
   Yield Productivity                       1.38 kg[grain yield]/m3[ET]   =   13.8 kg[yield]/ha per mm[ET]

 Transpiration during growth season         67.3 mm[EP]
   Dry Matter Productivity                  5.70 kg[DM]/m3[EP]            =   57.0 kg[DM]/ha per mm[EP]
   Yield Productivity                       2.13 kg[grain yield]/m3[EP]   =   21.3 kg[yield]/ha per mm[EP]

 Irrigation during growing season          120.0 mm[irrig]
   Dry Matter Productivity                  3.20 kg[DM]/m3[irrig]         =   32.0 kg[DM]/ha per mm[irrig]
   Yield Productivity                       1.20 kg[grain yield]/m3[irrig]=   12.0 kg[yield]/ha per mm[irrig]

 N applied during growing season           173.0 kg[N applied]/ha
   Dry Matter Productivity                  22.2 kg[DM]/kg[N applied]
   Yield Productivity                        8.3 kg[yield]/kg[N applied]

 N uptake during growing season             44.5 kg[N uptake]/ha
   Dry Matter Productivity                  86.2 kg[DM]/kg[N uptake]
   Yield Productivity                       32.3 kg[yield]/kg[N uptake]

--------------------------------------------------------------------------------------------------------------

          WHEAT YIELD :     1437 kg/ha    [Dry weight] 

**************************************************************************************************************
  

*DSSAT Cropping System Model Ver. 4.8.2.000 -release  AUG 22, 2025 15:36:39

*RUN  70        : DR23_G-14                 CSCER048 CIOB2302   14
 MODEL          : CSCER048 - Wheat
 EXPERIMENT     : CIOB2302 WH ROOTS ANATOMY DROUGHT
 DATA PATH      : C:\DSSAT48\Wheat\
 TREATMENT 14   : DR23_G-14                 CSCER048


 CROP           : Wheat            CULTIVAR : ENTRY 14         ECOTYPE :CI0701
 STARTING DATE  : SEP  1 2022
 PLANTING DATE  : DEC  3 2022      PLANTS/m2 :   150.0    ROW SPACING :  36.cm
 WEATHER        : CIOB   2022
 SOIL           : CCENEB2301     TEXTURE : C     -   CIMMYT CENEB 710
 SOIL INIT COND : DEPTH:120cm EXTR. H2O: 82.8mm  NO3:252.3kg/ha  NH4:205.5kg/ha
 WATER BALANCE  : IRRIGATE ON REPORTED DATE(S)
 IRRIGATION     :      120 mm IN     1 APPLICATIONS
 NITROGEN BAL.  : SOIL-N & N-UPTAKE SIMULATION; NO N-FIXATION
 N-FERTILIZER   :      173 kg/ha IN     2 APPLICATIONS
 RESIDUE/MANURE : INITIAL :     0 kg/ha ;    2222 kg/ha IN     1 APPLICATIONS
 ENVIRONM. OPT. : DAYL=    0.00  SRAD=    0.00  TMAX=    0.00  TMIN=    0.00
                  RAIN=    0.00  CO2 =    0.00  DEW =    0.00  WIND=    0.00
 SIMULATION OPT : WATER   :Y  NITROGEN:Y  N-FIX:N  PHOSPH :N  PESTS  :N
                  PHOTO   :C  ET      :R  INFIL:S  HYDROL :R  SOM    :G
                  CO2 418ppm  NSWIT   :1  EVAP :R  SOIL   :2  STEMP  :D
 MANAGEMENT OPT : PLANTING:R  IRRIG   :R  FERT :R  RESIDUE:R  HARVEST:M
                  WEATHER :M  TILLAGE :Y

*SUMMARY OF SOIL AND GENETIC INPUT PARAMETERS

   SOIL LOWER UPPER   SAT  EXTR  INIT   ROOT   BULK     pH    NO3    NH4    ORG
  DEPTH LIMIT LIMIT    SW    SW    SW   DIST   DENS                          C
   cm   cm3/cm3    cm3/cm3    cm3/cm3         g/cm3         ugN/g  ugN/g     %
-------------------------------------------------------------------------------
  0-  5 0.143 0.204 0.268 0.061 0.204   1.00   1.35   8.80  19.00  12.00   1.10
  5- 15 0.143 0.204 0.268 0.061 0.204   1.00   1.35   8.80  19.00  12.00   1.10
 15- 30 0.143 0.204 0.268 0.061 0.204   1.00   1.35   8.80  19.00  12.00   1.10
 30- 45 0.166 0.234 0.274 0.068 0.230   0.41   1.58   8.50  18.00  16.00   0.40
 45- 60 0.166 0.234 0.274 0.068 0.230   0.41   1.58   8.50  18.00  16.00   0.40
 60- 90 0.155 0.227 0.276 0.072 0.230   0.22   1.50   8.50  20.00  18.00   0.40
 90-120 0.188 0.263 0.308 0.075 0.263   0.12   1.38   8.00   0.01   0.01   0.40

TOT-120  19.6  27.8  33.8   8.3  27.8  <--cm   -  kg/ha-->  252.3  205.5  98070
SOIL ALBEDO    : 0.13      EVAPORATION LIMIT : 6.00         MIN. FACTOR  : 1.00
RUNOFF CURVE # :61.00      DRAINAGE RATE     : 0.60         FERT. FACTOR : 1.00

 Wheat            CULTIVAR: 589328-ENTRY 14           ECOTYPE: CI0701
   P1V   P1D    P5    G1    G2    G3 PHINT
   2.0  33.5 574.8  27.3  43.9  0.50 110.7


*SIMULATED CROP AND SOIL STATUS AT MAIN DEVELOPMENT STAGES
  
 RUN NO.     70   ROOTS ANATOMY DROUGHT                                       

 ...... DATE ......  GROWTH STAGE BIOMASS   LEAF       CROP N      STRESS
 YEARDOY DOM MON DAP ............. kg/ha AREA NUMBER  kg/ha   %   H2O    N
 2022337   3 Dec   0 7 Sowing         0  0.00   0.0     0   0.0  0.00  0.00
 2022338   4 Dec   1 8 Germinate      0  0.00   0.0     0   0.0  0.00  0.00
 2022339   5 Dec   2 9 Emergence      0  0.00   0.0     0   0.0  0.00  0.00
 2023028  28 Jan  56 1 Term Spklt   493  0.85   8.9    23   4.6  0.55  0.11
 2023046  15 Feb  74 2 End Veg      836  1.20  11.4    26   3.2  0.63  0.00
 2023059  28 Feb  87 3 End Ear Gr  1297  0.83  11.4    25   2.0  0.59  0.00
 2023073  14 Mar 101 4 Beg Gr Fil  1685  0.56  11.4    25   1.5  0.69  0.00
 2023104  14 Apr 132 5 End Gr Fil  3929  0.15  11.4    41   1.0  0.16  0.00
 2023104  14 Apr 132 6 Harvest     3929  0.15  11.4    41   1.0  0.11  0.00
  

*MAIN GROWTH AND DEVELOPMENT VARIABLES

@     VARIABLE                             SIMULATED     MEASURED
      --------                             ---------     --------
      Emergence (DAP)                            2            6
      Anthesis (DAP)                            90           83
      Maturity (DAP)                           132          114
      Product wt (kg dm/ha;no loss)           1572         3107
      Product unit weight (g dm)             0.044        0.034
      Product number (no/m2)                  3581         9175
      Product number (no/group)                7.0        -99.0
      Product harvest index (ratio)           0.40         0.44
      Maximum leaf area index                  1.2          4.3
      Final leaf number (one axis)            11.4        -99.0
      Final shoot number (#/m2)                510          -99
      Canopy (tops) wt (kg dm/ha)             3929         7086
      Vegetative wt (kg dm/ha)                2357         3979
      Root wt (kg dm/ha)                       299          -99
      Assimilate wt (kg dm/ha)                4585          -99
      Senesced wt (kg dm/ha)                   211          -99
      Reserves wt (kg dm/ha)                  1396          -99
      N uptake (kg/ha)                        47.5        -99.0
      N senesced (kg/ha)                       2.9        -99.0
      Above-ground N (kg/ha)                  41.0        -99.0
      Root N (kg/ha)                           5.0        -99.0
      Vegetative N (kg/ha)                     7.0        -99.0
      Product N (kg/ha)                       34.0         59.1
      Product N harvest index (ratio)         0.83       -99.00
      Product N (%)                            2.2          1.9
      Vegetative N (%)                         0.3        -99.0
      Leaf+stem wt,anthesis (kg dm/ha)        1394          -99
      Leaf+stem N,anthesis (kg/ha)            25.3        -99.0
      Leaf N,anthesis (%)                      3.0        -99.0

*ENVIRONMENTAL AND STRESS FACTORS

 |-----Development Phase------|-------------Environment--------------|----------------Stress-----------------|
                              |--------Average-------|---Cumulative--|         (0=Min, 1=Max Stress)         |
                         Time  Temp  Temp Solar Photop         Evapo |----Water---|--Nitrogen--|--Phosphorus-|
                         Span   Max   Min   Rad  [day]   Rain  Trans  Photo         Photo         Photo
                         days    °C    °C MJ/m2     hr     mm     mm  synth Growth ' synth Growth  synth Growth
--------------------------------------------------------------------------------------------------------------
 Germinate  - Term Spklt   54  25.7   6.6  14.3  11.35   10.0   28.4  0.552  0.641  0.114  0.114 -99.00 -99.00
 Term Spklt - End Veg      18  25.3   5.7  15.8  11.78    3.6   10.2  0.626  0.712  0.000  0.000 -99.00 -99.00
 End Veg    - End Ear Gr   13  23.7   8.2  15.9  12.13    8.6   16.9  0.588  0.681  0.000  0.000 -99.00 -99.00
 End Ear Gr - Beg Gr Fil   14  28.2   7.2  20.5  12.47    0.1    6.4  0.692  0.763  0.000  0.000 -99.00 -99.00
 Beg Gr Fil - End Gr Fil   31  29.0   8.9  23.2  13.09   65.8   42.6  0.162  0.259  0.000  0.000 -99.00 -99.00
  
 Germinate  - End Gr Fil  130  26.5   7.2  17.5  12.03   88.1  104.5  0.488  0.577  0.047  0.047 -99.00 -99.00
--------------------------------------------------------------------------------------------------------------


*RESOURCE PRODUCTIVITY

 Growing season length: 130 days 

 Precipitation during growth season         88.1 mm[rain]
   Dry Matter Productivity                  4.46 kg[DM]/m3[rain]          =   44.6 kg[DM]/ha per mm[rain]
   Yield Productivity                       1.78 kg[grain yield]/m3[rain] =   17.8 kg[yield]/ha per mm[rain]

 Evapotranspiration during growth season   104.5 mm[ET]
   Dry Matter Productivity                  3.76 kg[DM]/m3[ET]            =   37.6 kg[DM]/ha per mm[ET]
   Yield Productivity                       1.50 kg[grain yield]/m3[ET]   =   15.0 kg[yield]/ha per mm[ET]

 Transpiration during growth season         68.2 mm[EP]
   Dry Matter Productivity                  5.76 kg[DM]/m3[EP]            =   57.6 kg[DM]/ha per mm[EP]
   Yield Productivity                       2.30 kg[grain yield]/m3[EP]   =   23.0 kg[yield]/ha per mm[EP]

 Irrigation during growing season          120.0 mm[irrig]
   Dry Matter Productivity                  3.27 kg[DM]/m3[irrig]         =   32.7 kg[DM]/ha per mm[irrig]
   Yield Productivity                       1.31 kg[grain yield]/m3[irrig]=   13.1 kg[yield]/ha per mm[irrig]

 N applied during growing season           173.0 kg[N applied]/ha
   Dry Matter Productivity                  22.7 kg[DM]/kg[N applied]
   Yield Productivity                        9.1 kg[yield]/kg[N applied]

 N uptake during growing season             47.5 kg[N uptake]/ha
   Dry Matter Productivity                  82.7 kg[DM]/kg[N uptake]
   Yield Productivity                       33.1 kg[yield]/kg[N uptake]

--------------------------------------------------------------------------------------------------------------

          WHEAT YIELD :     1572 kg/ha    [Dry weight] 

**************************************************************************************************************
