$GROWTH ASPECTS OUTPUT FILE

*DSSAT Cropping System Model Ver. 4.8.2.000 -release  AUG 22, 2025 15:36:35

*RUN   1        : WW23_G-1                  CSCER048 CIOB2301    1
 MODEL          : CSCER048 - Wheat
 EXPERIMENT     : CIOB2301 WH ROOTS ANATOMY
 DATA PATH      : C:\DSSAT48\Wheat\
 TREATMENT  1   : WW23_G-1                  CSCER048
  
@YEAR DOY   DAS   DAP TMEAN TKILL  GSTD  L#SD PARID PARUD  AWAD  LAID  SAID  CAID  TWAD SDWAD  RWAD  CWAD  LWAD  SWAD  HWAD  HIAD CHWAD  EWAD RSWAD SNWPD SNWLD SNWSD  RS%D  H#AD  HWUD  T#AD  SLAD  RDPD  PTFD  SWXD WAVRD WUPRD  WFTD  WFPD  WFGD  NFTD  NFPD  NFGD NUPRD  TFPD  TFGD VRNFD DYLFD
 2022 327    83     0  17.6  -6.0  0.00  0.00  0.00  0.00   0.0  0.00 0.000  0.00    43    43     0     0     0     0     0  0.00     0     0     0     0     0     0   0.0     0     0   150   -99  0.04  0.00  19.7  99.9  1.00  0.00  0.00  0.00  0.00  0.00  0.00   0.0  0.00  0.00  0.50  0.00
 2022 328    84     1  16.4  -6.0  5.84  0.00  0.00  0.00   0.0  0.00 0.000  0.00    43    43     0     0     0     0     0  0.00     0     0     0     0     0     0   0.0     0     0   150   -99  0.04  0.00   7.2  99.9  1.00  0.00  0.00  0.00  0.00  0.00  0.00   0.0  0.00  0.00  0.50  0.00
 2022 329    85     2  17.4  -6.0  8.40  0.00  0.00  0.00   0.0  0.00 0.000  0.00    43    42     1     0     0     0     0  0.00     0     0     0     0     0     0   0.0     0     0   150   -99  0.06  0.00   4.0  99.9  1.00  0.00  0.00  0.00  0.00  0.00  0.00   0.0  0.00  0.00  0.50  0.00
 2022 330    86     3  18.0  -6.0 10.00  0.00  0.00  0.00   0.0  0.00 0.000  0.00    43    40     2     0     0     0     0  0.00     0     0     0     0     0 .0010   0.0     0     0   150   -99  0.08  0.00   2.9  99.9  1.00  0.00  0.00  0.00  0.00  0.00  0.00   2.0  0.00  0.00  0.50  0.00
 2022 331    87     4  16.3  -6.0 10.45  0.45  0.02  0.00   0.0  0.03 0.003  0.03    43    26     3    13     9     4     0  0.00     0     0     0     0     0 .0027   0.0     0     0   150   350  0.10  0.75   2.8  99.9  1.00  0.00  0.00  0.00  0.00  0.00  0.00   0.1  0.00  0.00  0.50  0.31
 2022 332    88     5  16.1  -6.0 10.89  0.89  0.03  0.32   0.6  0.04 0.004  0.04    43    22     4    17    11     6     0  0.00     0     0     1     0 0.130 .0052   3.2     0     0   150   347  0.12  0.67   2.9  42.7  0.15  1.00  0.85  0.88  0.01  0.01  0.01   0.1  0.00  0.00  0.50  0.31
 2022 333    89     6  18.1  -6.0 11.39  1.39  0.04  0.28   0.6  0.05 0.005  0.05    43    16     5    22    14     8     0  0.00     0     0     1     0 0.290 .0090   5.0     0     0   150   347  0.14  0.67   4.1  47.3  0.17  1.00  0.83  0.87  0.23  0.23  0.23   0.1  0.00  0.00  0.50  0.31
 2022 334    90     7  18.5  -6.0 11.90  1.90  0.04  0.26   0.7  0.06 0.006  0.06    44    12     6    26    17     9     0  0.00     0     0     1     0 0.498 .0138   4.7     0     0   150   345  0.16  0.68   5.3  48.5  0.21  1.00  0.79  0.84  0.42  0.42  0.42   0.2  0.00  0.00  0.50  0.32
 2022 335    91     8  19.2  -6.0 12.21  2.21  0.05  0.27   0.9  0.06 0.006  0.07    44     9     7    28    18    10     0  0.00     0     0     1     0 0.742 .0199   4.9     0     0   150   344  0.19  0.68   6.6  49.8  0.25  1.00  0.75  0.81  0.50  0.50  0.50   0.5  0.00  0.00  0.50  0.32
 2022 336    92     9  23.0  -6.0 12.53  2.53  0.05  0.30   1.0  0.06 0.006  0.07    45     9     8    29    18    10     0  0.00     0     0     1     0 1.002 .0283   5.2     0     0   150   343  0.22  0.69   8.2  56.5  0.27  1.00  0.73  0.79  0.49  0.49  0.49   0.9  0.00  0.20  0.50  0.32
 2022 337    93    10  23.0  -6.0 12.84  2.84  0.05  0.35   1.1  0.06 0.006  0.07    46     9     8    29    19    11     0  0.00     0     0     2     0 1.270 .0372   5.6     0     0   150   342  0.24  0.69   9.7  72.5  0.29  1.00  0.71  0.77  0.45  0.45  0.45   1.2  0.00  0.20  0.50  0.32
 2022 338    94    11  22.0  -6.0 13.15  3.15  0.05  0.38   1.2  0.06 0.006  0.07    46     9     8    30    19    11     0  0.00     0     0     2     0 1.543 .0458   5.8     0     0   150   342  0.27  0.69  11.2  87.5  0.30  1.00  0.70  0.77  0.41  0.41  0.41   1.4  0.00  0.13  0.50  0.32
 2022 339    95    12  22.2  -6.0 13.45  3.45  0.05  0.99   1.3  0.07 0.007  0.07    48     9     8    31    20    11     0  0.00     0     0     2     0 1.543 .0549   5.1     0     0   192   341  0.30  0.73  12.8  99.9  0.73  0.54  0.27  0.44  0.37  0.37  0.37   1.4  0.00  0.15  0.50  0.32
 2022 340    96    13  19.7  -6.0 13.72  3.72  0.05  1.42   1.4  0.07 0.007  0.08    49     9     9    32    20    11     0  0.00     0     0     1     0 1.543 .0631   4.5     0     0   246   339  0.32  0.73  15.9  99.9  1.03  0.00  0.00  0.21  0.34  0.34  0.34   1.2  0.00  0.00  0.50  0.32
 2022 341    97    14  20.0  -6.0 14.00  4.00  0.05  1.00   1.7  0.07 0.007  0.08    50     9     9    33    21    12     0  0.00     0     0     1     0 1.543 .0716   4.0     0     0   274   338  0.34  0.73  16.8  99.9  0.67  0.66  0.33  0.48  0.30  0.30  0.30   1.4  0.00  0.00  0.50  0.32
 2022 342    98    15  20.8  -6.0 14.28  4.28  0.05  0.47   1.7  0.07 0.007  0.08    51     9     9    34    22    12     0  0.00     0     0     1     0 1.855 .0808   4.4     0     0   274   337  0.36  0.69  17.2  99.9  0.30  1.00  0.70  0.77  0.27  0.27  0.27   1.3  0.00  0.05  0.50  0.32
 2022 343    99    16  18.0  -6.0 14.53  4.53  0.05  0.46   1.9  0.07 0.007  0.07    51     9     9    33    19    13     0  0.00     0     0     4     0 4.339 .0890  11.8     0     0   274   336  0.37  0.69  18.1  99.9  0.29  1.00  0.71  0.78  0.25  0.25  0.25   1.7  0.00  0.00  0.50  0.32
 2022 344   100    17  17.0  -6.0 14.76  4.76  0.04  0.55   2.1  0.06 0.006  0.06    50     9    10    32    17    14     0  0.00     0     0     6     0 6.675 .0971  18.3     0     0   274   334  0.39  0.70  18.9  99.9  0.33  1.00  0.67  0.75  0.22  0.22  0.22   2.0  0.00  0.00  0.50  0.32
 2022 345   101    18  16.2  -6.0 14.99  4.99  0.04  0.71   2.4  0.05 0.005  0.06    50     9    10    31    16    15     0  0.00     0     0     7     0 8.888 0.105  24.0     0     0   274   332  0.40  0.71  19.6  99.9  0.41  1.00  0.59  0.69  0.19  0.19  0.19   2.0  0.00  0.00  0.50  0.32
 2022 346   102    19  16.1  -6.0 15.21  5.21  0.04  0.87   2.7  0.06 0.006  0.06    52     9    11    33    17    16     0  0.00     0     0     7     0 9.120 0.113  21.3     0     0   274   330  0.41  0.72  20.4  99.9  0.48  1.00  0.52  0.63  0.16  0.16  0.16   2.0  0.00  0.00  0.50  0.32
 2022 347   103    20  15.1  -6.0 15.42  5.42  0.04  0.97   3.1  0.06 0.006  0.06    54     9    11    34    18    16     0  0.00     0     0     8     0 10.30 0.121  22.1     0     0   277   327  0.42  0.72  65.7  99.9  0.52  0.95  0.48  0.60  0.14  0.14  0.14   2.0  0.00  0.00  0.50  0.32
 2022 348   104    21  15.2  -6.0 21.40  5.62  0.05  1.90   6.5  0.06 0.007  0.07    59     9    12    38    20    18     0  0.00     0     0     8     0 11.25 0.130  20.5     0     0   360   323  0.43  0.76  48.8  99.9  2.51  0.00  0.00  0.00  0.11  0.11  0.11   2.0  0.00  0.00  0.50  0.32
 2022 349   105    22  14.6  -6.0 21.95  5.83  0.05  1.96   7.3  0.07 0.008  0.08    64     9    13    43    23    20     0  0.00     0     0     8     0 12.17 0.139  18.9     0     0   442   320  0.44  0.76  34.4  99.9  2.61  0.00  0.00  0.00  0.09  0.09  0.09   2.0  0.00  0.00  0.49  0.32
 2022 350   106    23  12.5  -6.0 22.43  6.00  0.06  2.01   4.7  0.08 0.009  0.09    68     9    14    45    25    21     0  0.00     0     0     8     0 12.96 0.147  17.8     0     0   514   318  0.45  0.76  28.4  99.9  2.69  0.00  0.00  0.00  0.06  0.06  0.06   2.0  0.00  0.00  0.41  0.32
 2022 351   107    24  14.9  -6.0 23.01  6.20  0.07  2.03   8.7  0.09 0.010  0.10    75     9    15    52    29    23     0  0.00     0     0     8     0 13.28 0.157  14.9     0     0   601   316  0.47  0.77  26.6  99.9  1.42  0.00  0.00  0.00  0.05  0.05  0.05   0.8  0.00  0.00  0.41  0.32
 2022 352   108    25  15.5  -6.0 23.60  6.42  0.08  1.99  10.1  0.11 0.012  0.12    84     9    16    59    34    25     0  0.00     0     0     8     0 13.76 0.169  12.8     0     0   690   313  0.48  0.76  26.9  99.9  1.23  0.00  0.00  0.05  0.07  0.07  0.07   0.7  0.00  0.00  0.41  0.32
 2022 353   109    26  14.8  -6.0 24.14  6.62  0.09  1.92  11.3  0.12 0.014  0.14    94     9    18    67    40    28     0  0.00     0     0     7     0 14.21 0.181  11.1     0     0   771   310  0.49  0.76  27.3  99.9  1.05  0.00  0.00  0.20  0.11  0.11  0.11   0.7  0.00  0.00  0.40  0.32
 2022 354   110    27  16.6  -6.0 24.74  6.85  0.10  1.88  11.5  0.14 0.016  0.15   104     9    20    75    45    30     0  0.00     0     0     7     0 14.73 0.196   9.8     0     0   861   309  0.50  0.76  27.9  99.9  1.04  0.00  0.00  0.20  0.13  0.13  0.13   0.8  0.00  0.00  0.40  0.32
 2022 355   111    28  15.2  -6.0 25.24  7.06  0.11  1.68  12.9  0.16 0.018  0.18   115     9    22    85    51    33     0  0.00     0     0     7     0 15.21 0.211   8.7     0     0   935   307  0.51  0.76  28.3  99.9  0.90  0.20  0.10  0.31  0.13  0.13  0.13   0.8  0.00  0.00  0.40  0.32
 2022 356   112    29  15.3  -6.0 25.67  7.27  0.13  1.57  13.8  0.18 0.020  0.20   127     9    24    95    58    37     0  0.00     0     0     7     0 15.65 0.228   7.7     0     0  1001   305  0.52  0.76  28.8  91.0  0.84  0.31  0.16  0.35  0.13  0.13  0.13   0.8  0.00  0.00  0.40  0.32
 2022 357   113    30  15.9  -6.0 26.08  7.49  0.14  1.51  14.6  0.20 0.023  0.22   140     9    26   105    65    40     0  0.00     0     0     7     0 16.12 0.246   6.9     0     0  1062   303  0.54  0.76  29.2  82.7  0.81  0.37  0.19  0.37  0.13  0.13  0.13   0.9  0.00  0.00  0.40  0.32
 2022 358   114    31  16.2  -6.0 26.46  7.71  0.15  1.47  15.8  0.22 0.025  0.24   153     9    28   117    73    44     0  0.00     0     0     7     0 16.60 0.267   6.3     0     0  1119   301  0.55  0.75  29.7  75.4  0.78  0.43  0.22  0.40  0.13  0.13  0.13   0.9  0.00  0.00  0.40  0.32
 2022 359   115    32  17.8  -6.0 26.81  7.95  0.17  1.40  16.6  0.24 0.028  0.27   168     9    30   129    80    48     0  0.00     0     0     7     0 17.12 0.292   5.8     0     0  1171   300  0.56  0.75  30.2  66.7  0.74  0.52  0.26  0.43  0.12  0.12  0.12   0.9  0.00  0.00  0.47  0.32
 2022 360   116    33  17.0  -6.0 27.12  8.19  0.18  1.39  18.4  0.27 0.031  0.30   184     9    33   142    89    53     0  0.00     0     0     8     0 17.62 0.318   5.3     0     0  1218   298  0.58  0.75  30.7  62.2  0.73  0.55  0.27  0.44  0.11  0.11  0.11   0.9  0.00  0.00  0.47  0.32
 2022 361   117    34  17.5  -6.0 27.41  8.43  0.20  1.36  19.3  0.29 0.034  0.32   200     9    36   156    98    58     0  0.00     0     0     8     0 18.47 0.347   5.1     0     0  1262   296  0.59  0.75  31.2  57.8  0.70  0.59  0.30  0.46  0.10  0.10  0.10   0.9  0.00  0.00  0.50  0.32
 2022 362   118    35  16.6  -6.0 28.04  8.66  0.21  1.96  18.9  0.31 0.037  0.35   217     9    39   169   107    63     0  0.00     0     0     8     0 19.28 0.377   4.9     0     0  1356   295  0.60  0.77  31.6  90.2  1.14  0.00  0.00  0.13  0.09  0.09  0.09   1.1  0.00  0.00  0.50  0.32
 2022 363   119    36  17.2  -6.0 28.69  8.89  0.22  1.99   8.9  0.32 0.039  0.36   224     9    40   176   110    65     0  0.00     0     0     9     0 20.12 0.410   4.9     0     0  1454   294  0.61  0.77  32.5  99.9  2.56  0.00  0.00  0.00  0.07  0.07  0.07   2.0  0.00  0.00  0.50  0.32
 2022 364   120    37  18.6  -6.0 28.97  9.15  0.24  1.37  22.0  0.35 0.042  0.39   243     9    43   191   120    71     0  0.00     0     0     9     0 21.03 0.447   4.8     0     0  1496   293  0.63  0.75  33.0  53.9  0.68  0.63  0.32  0.47  0.06  0.06  0.06   1.0  0.00  0.00  0.50  0.32
 2022 365   121    38  17.8  -6.0 29.18  9.39  0.25  1.30  23.5  0.37 0.045  0.42   261     9    47   206   129    78     0  0.00     0     0    11     0 23.68 0.485   5.5     0     0  1527   291  0.64  0.75  33.4  48.8  0.64  0.72  0.36  0.51  0.05  0.05  0.05   1.1  0.00  0.00  0.50  0.32
 2023   1   122    39  16.6  -6.0 29.53  9.62  0.26  1.56  25.9  0.40 0.049  0.45   282     9    50   223   138    85     0  0.00     0     0    13     0 26.17 0.524   5.9     0     0  1579   289  0.65  0.76  33.6  55.8  0.76  0.49  0.24  0.42  0.04  0.04  0.04   1.2  0.00  0.00  0.50  0.32
 2023   2   123    40  15.1  -6.0 30.00  9.83  0.28  1.94  28.0  0.43 0.053  0.48   305     9    54   243   150    93     0  0.00     0     0    15     0 28.45 0.562   6.1     0     0  1660   287  0.66  0.78  33.9  66.6  0.93  0.14  0.07  0.28  0.03  0.03  0.03   1.1  0.00  0.00  0.50  0.32
 2023   3   124    41  13.8  -6.0 30.00 10.02  0.30  1.40  29.5  0.46 0.057  0.52   330     9    58   263   162   101     0  0.00     0     0    16     0 30.53 0.599   6.1     0     0  1688   286  0.67  0.75  72.4  99.2  0.67  0.67  0.33  0.49  0.02  0.02  0.02   1.1  0.00  0.00  0.46  0.32
 2023   4   125    42  16.3  -6.0 30.00 10.24  0.32  2.11  49.0  0.51 0.064  0.58   370     9    65   296   181   115     0  0.00     0     0    20     0 35.08 0.647   6.8     0     0  1787   283  0.68  0.78  55.3  61.1  1.90  0.00  0.00  0.00  0.02  0.02  0.02   1.3  0.00  0.00  0.46  0.32
 2023   5   126    43  17.6  -6.0 30.00 10.48  0.35  2.12  55.3  0.57 0.072  0.64   415     9    72   335   203   132     0  0.00     0     0    25     0 40.06 0.704   7.3     0     0  1894   280  0.69  0.78  46.1  45.5  1.88  0.00  0.00  0.00  0.01  0.01  0.01   1.5  0.00  0.00  0.49  0.32
 2023   6   127    44  18.3  -6.0 30.00 10.73  0.38  2.13  59.4  0.63 0.081  0.71   464     9    79   376   227   149     0  0.00     0     0    29     0 45.26 0.770   7.7     0     0  2006   278  0.70  0.79  42.6  39.7  1.49  0.00  0.00  0.00  0.01  0.01  0.01   1.1  0.00  0.00  0.49  0.32
 2023   7   128    45  17.7  -6.0 30.00 10.98  0.41  2.14  62.7  0.70 0.090  0.79   517     9    87   421   253   168     0  0.00     0     0    33     0 50.33 0.840   7.8     0     0  2115   276  0.72  0.79  42.3  38.3  1.43  0.00  0.00  0.00  0.00  0.00  0.00   1.0  0.00  0.00  0.49  0.32
 2023   8   129    46  17.3  -6.0 30.00 11.22  0.45  2.15  67.9  0.79 0.102  0.89   576     9    96   472   286   186     0  0.00     0     0    34     0 52.84 0.916   7.1     0     0  2221   275  0.73  0.79  41.9  35.5  1.33  0.00  0.00  0.00  0.00  0.00  0.00   1.0  0.00  0.00  0.49  0.32
 2023   9   130    47  16.6  -6.0 30.00 11.44  0.48  2.15  77.4  0.87 0.113  0.98   641     9   106   527   318   209     0  0.00     0     0    38     0 58.87     1   7.3     0     0  2323   273  0.74  0.79  41.3  31.0  1.16  0.00  0.00  0.11  0.00  0.00  0.00   0.8  0.00  0.00  0.49  0.32
 2023  10   131    48  17.2  -6.0 30.00 11.68  0.52  2.11  79.0  0.95 0.125  1.08   707     9   116   582   351   232     0  0.00     0     0    43     0 65.16 1.087   7.4     0     0  2427   271  0.75  0.79  40.7  29.0  1.03  0.00  0.00  0.21  0.02  0.02  0.02   0.9  0.00  0.00  0.49  0.32
 2023  11   132    49  17.9  -6.0 30.00 11.93  0.54  1.78  74.9  1.03 0.136  1.16   768     9   126   634   381   253     0  0.00     0     0    47     0 71.73 1.190   7.5     0     0  2504   269  0.76  0.77  40.3  25.2  0.85  0.30  0.15  0.35  0.02  0.02  0.02   1.0  0.00  0.00  0.50  0.32
 2023  12   133    50  18.4  -6.0 30.00 12.18  0.57  1.60  71.5  1.10 0.147  1.24   826     9   136   682   409   273     0  0.00     0     0    51     0 78.52 1.306   7.5     0     0  2563   268  0.77  0.77  39.9  23.6  0.76  0.48  0.24  0.42  0.02  0.02  0.02   1.1  0.00  0.00  0.50  0.32
 2023  13   134    51  16.6  -6.0 30.00 12.41  0.59  1.53  70.5  1.17 0.157  1.32   884     9   146   730   438   292     0  0.00     0     0    54     0 84.70 1.419   7.5     0     0  2608   266  0.78  0.76  39.5  23.1  0.72  0.56  0.28  0.44  0.01  0.01  0.01   1.1  0.00  0.00  0.50  0.32
 2023  14   135    52  17.6  -6.0 30.00 12.65  0.61  1.43  67.6  1.23 0.167  1.40   938     9   155   774   465   309     0  0.00     0     0    58     0 91.29 1.548   7.4     0     0  2645   265  0.80  0.76  39.2  21.9  0.67  0.66  0.33  0.48  0.01  0.01  0.01   1.2  0.00  0.00  0.50  0.31
 2023  15   136    53  16.9  -6.0 30.00 12.88  0.63  2.07  69.4  1.30 0.177  1.48   995     9   164   823   494   328     0  0.00     0     0    60     0 97.60 1.678   7.3     0     0  2742   264  0.81  0.79  38.8  31.8  0.97  0.07  0.03  0.26  0.00  0.00  0.00   1.2  0.00  0.00  0.50  0.31
 2023  16   137    54  17.0  -6.0 30.00 13.11  0.65  1.35  68.2  1.37 0.187  1.56  1050     9   174   868   522   346     0  0.00     0     0    63     0 104.0 1.817   7.2     0     0  2769   263  0.82  0.76  38.5  20.9  0.63  0.74  0.37  0.52  0.00  0.00  0.00   1.3  0.00  0.00  0.50  0.31
 2023  17   138    55  14.1  -6.0 30.00 13.31  0.65  2.15  33.4  1.39 0.191  1.58  1072     9   178   886   531   355     0  0.00     0     0    66     0 112.6 1.940   7.4     0     0  2856   262  0.83  0.79  38.9  73.1  2.19  0.00  0.00  0.00  0.00  0.00  0.00   2.0  0.00  0.00  0.48  0.31
 2023  18   139    56  13.8  -6.0 30.00 13.50  0.67  1.45  72.9  1.45 0.201  1.65  1130     9   188   933   558   375     0  0.00     0     0    70     0 121.0 2.062   7.5     0     0  2886   260  0.84  0.76  38.4  22.0  0.68  0.65  0.32  0.48  0.00  0.00  0.00   1.3  0.00  0.00  0.44  0.31
 2023  19   140    57  14.2  -6.0 30.00 13.69  0.68  1.37  70.3  1.51 0.210  1.72  1184     9   198   978   584   393     0  0.00     0     0    74     0 129.7 2.196   7.6     0     0  2910   259  0.85  0.76  37.9  21.1  0.64  0.72  0.36  0.51  0.00  0.00  0.00   1.3  0.00  0.00  0.41  0.31
 2023  20   141    58  13.8  -6.0 30.00 13.88  0.69  1.17  68.3  1.54 0.216  1.76  1229     9   208  1012   598   415     0  0.00     0     0    85     0 146.4 2.333   8.4     0     0  2917   258  0.85  0.75  87.9  43.0  0.54  0.91  0.46  0.58  0.00  0.00  0.00   1.4  0.00  0.00  0.37  0.31
 2023  21   142    59  14.1  -6.0 30.00 14.08  0.72  2.15 127.6  1.69 0.238  1.93  1341     9   224  1109   660   449     0  0.00     0     0    86     0 151.4 2.479   7.8     0     0  3000   256  0.86  0.80  70.8  33.6  2.91  0.00  0.00  0.00  0.00  0.00  0.00   1.7  0.00  0.00  0.35  0.31
 2023  22   143    60  14.1  -6.0 30.00 14.27  0.75  2.15 136.8  1.80 0.257  2.05  1449     9   240  1201   709   492     0  0.00     0     0    99     0 168.6 2.636   8.3     0     0  3000   254  0.87  0.80  60.4  26.8  2.91  0.00  0.00  0.00  0.00  0.00  0.00   1.3  0.00  0.00  0.32  0.31
 2023  23   144    61  12.6  -6.0 30.00 14.44  0.76  2.15 119.4  1.90 0.273  2.17  1543     9   254  1281   753   528     0  0.00     0     0   109     0 184.1 2.787   8.5     0     0  3000   252  0.88  0.80  57.0  30.3  3.21  0.00  0.00  0.00  0.00  0.00  0.00   2.0  0.00  0.00  0.24  0.31
 2023  24   145    62  13.1  -6.0 30.00 14.62  0.79  2.15 145.3  2.02 0.294  2.32  1661     9   272  1380   809   572     0  0.00     0     0   120     0 200.4 2.954   8.7     0     0  3000   250  0.89  0.80  54.3  23.5  2.56  0.00  0.00  0.00  0.00  0.00  0.00   1.5  0.00  0.00  0.18  0.30
 2023  25   146    63  14.5  -6.0 30.00 14.82  0.81  2.15 150.3  2.15 0.315  2.47  1781     9   289  1483   866   617     0  0.00     0     0   131     0 218.5 3.150   8.8     0     0  3000   248  0.90  0.80  51.7  20.8  2.16  0.00  0.00  0.00  0.00  0.00  0.00   1.5  0.00  0.00  0.16  0.30
 2023  26   147    64  15.7  -6.0 30.00 15.04  0.83  2.15 141.9  2.32 0.342  2.67  1908     9   306  1593   941   653     0  0.00     0     0   126     0 221.4 3.377   7.9     0     0  3000   247  0.91  0.80  49.8  20.8  2.05  0.00  0.00  0.00  0.00  0.00  0.00   1.7  0.00  0.00  0.00  0.00
 2023  27   148    65  12.1  -6.0 30.00 15.20  0.85  2.15 116.7  2.46 0.364  2.83  2013     9   320  1685  1004   681     0  0.00     0     0   121     0 224.0 3.563   7.2     0     0  3000   245  0.92  0.80  48.4  26.1  2.41  0.00  0.00  0.00  0.00  0.00  0.00   1.7  0.00  0.00  0.00  0.00
 2023  28   149    66  15.6  -6.0 30.00 15.42  0.86  2.15 132.8  2.61 0.389  3.00  2132     9   335  1788  1072   716     0  0.00     0     0   119     0 227.4 3.812   6.6     0     0  3000   244  0.93  0.81  46.8  20.5  1.83  0.00  0.00  0.00  0.00  0.00  0.00   1.4  0.00  0.00  0.00  0.00
 2023  29   150    67  14.4  -6.0 30.00 15.62  0.88  2.15 164.1  2.79 0.419  3.21  2280     9   354  1918  1154   764     0  0.00     0     0   118     0 230.5 4.054   6.2     0     0  3000   242  0.94  0.81  44.7  16.2  1.29  0.00  0.00  0.00  0.00  0.00  0.00   1.2  0.00  0.00  0.00  0.00
 2023  30   151    68  14.6  -6.0 30.36 15.82  0.90  2.15 149.4  2.95 0.447  3.40  2415     9   370  2036  1228   808     0  0.00     0     0   118     0 233.7 4.312   5.8     0     0  3000   240  0.95  0.81  42.8  17.0  1.17  0.00  0.00  0.10  0.00  0.00  0.00   1.3  0.00  0.00  0.00  0.00
 2023  31   152    69  14.5  -6.0 31.05 16.01  0.91  2.01 145.7  3.11 0.474  3.58  2546     9   387  2150  1299   851     0  0.00     0     0   118     0 236.9 4.580   5.5     0     0  3000   239  0.96  0.81  41.1  15.6  0.94  0.13  0.06  0.28  0.00  0.00  0.00   1.3  0.00  0.00  0.00  0.00
 2023  32   153    70  13.4  -6.0 31.68 16.20  0.91  2.15 117.7  3.23 0.496  3.72  2651     9   399  2243  1358   886     0  0.00     0     0   117     0 239.9 4.838   5.2     0     0  3000   238  0.96  0.82  39.8  20.7  1.08  0.00  0.00  0.17  0.00  0.00  0.00   1.7  0.00  0.00  0.00  0.00
 2023  33   154    71  15.9  -6.0 32.44 16.42  0.92  1.38 104.6  3.33 0.515  3.84  2743     9   413  2322  1407   915     0  0.00     0     0   116     0 243.4 5.155   5.0     0     0  3000   237  0.98  0.78  38.8  13.7  0.64  0.72  0.36  0.51  0.00  0.00  0.00   2.0  0.00  0.00  0.00  0.00
 2023  34   155    72  16.9  -6.0 33.24 16.65  0.92  1.18  89.8  3.34 0.522  3.87  2802     9   424  2369  1421   948     0  0.00     0     0   134     0 266.4 5.503   5.7     0     0  3000   235  0.99  0.78  81.8  27.8  0.55  0.90  0.45  0.58  0.00  0.00  0.00   2.0  0.00  0.00  0.00  0.00
 2023  35   156    73  16.9  -6.0 34.05 16.88  0.93  2.15 169.2  3.50 0.553  4.05  2955     9   442  2504  1498  1007     0  0.00     0     0   138     0 270.2 5.861   5.5     0     0  3000   234  1.00  0.82  72.8  23.6  3.37  0.00  0.00  0.00  0.00  0.00  0.00   2.0  0.00  0.00  0.00  0.00
 2023  36   157    74  18.1  -6.0 34.91 17.13  0.94  2.15 170.8  3.66 0.584  4.24  3109     9   459  2642  1573  1068     0  0.00     0     0   143     0 274.3 6.262   5.4     0     0  3000   232  1.01  0.83  67.6  21.2  4.08  0.00  0.00  0.00  0.00  0.00  0.00   2.0  0.00  0.00  0.00  0.00
 2023  37   158    75  16.7  -6.0 35.71 17.36  0.95  2.15 165.2  3.80 0.614  4.41  3259     9   476  2775  1644  1131     0  0.00     0     0   148     0 278.0 6.646   5.3     0     0  3000   231  1.02  0.83  65.2  22.0  4.36  0.00  0.00  0.00  0.00  0.00  0.00   2.0  0.00  0.00  0.00  0.00
 2023  38   159    76  16.2  -6.0 36.48 17.58  0.95  2.15 180.5  3.95 0.648  4.60  3424     9   493  2922  1717  1205     0  0.00     0     0   155     0 281.7 7.031   5.3     0     0  3000   230  1.03  0.83  62.5  19.6  3.64  0.00  0.00  0.00  0.00  0.00  0.00   2.0  0.00  0.00  0.00  0.00
 2023  39   160    77  18.1  -6.0 37.34 17.83  0.96  2.15 186.7  4.08 0.682  4.76  3594     9   511  3074  1791  1283     0  0.00     0     0   163     0 285.8 7.478   5.3     0     0  2901   228  1.04  0.84  59.7  17.2  2.87  0.00  0.00  0.00  0.00  0.00  0.00   2.0  0.00  0.00  0.00  0.00
 2023  40   161    78  15.1  -6.0 38.06 18.04  0.96  2.15 189.7  4.21 0.717  4.92  3767     9   529  3230  1865  1365     0  0.00     0     0   171     0 289.3 7.864   5.3     0     0  2821   225  1.05  0.84  56.9  17.0  2.28  0.00  0.00  0.00  0.00  0.00  0.00   2.0  0.00  0.00  0.00  0.00
 2023  41   162    79  17.1  -6.0 38.88 18.27  0.96  2.15 167.9  4.31 0.748  5.05  3920     9   544  3367  1929  1438     0  0.00     0     0   177     0 293.2 8.318   5.3     0     0  2733   223  1.06  0.84  54.5  17.6  1.93  0.00  0.00  0.00  0.00  0.00  0.00   2.0  0.00  0.00  0.00  0.00
 2023  42   163    80  14.0  -6.0 39.54 18.46  0.96  2.15  60.9  4.34 0.761  5.10  3974     9   549  3416  1948  1468     0  0.00     0     0   170     0 296.5 8.699   5.0     0     0  2664   223  1.07  0.85  54.1  52.3  4.65  0.00  0.00  0.00  0.00  0.00  0.00   2.0  0.00  0.00  0.00  0.00
 2023  43   164    81  15.7  -6.0 40.31 18.68  0.97  2.15 171.6  4.44 0.793  5.23  4131     9   565  3558  2011  1546     0  0.00     0     0   178     0 300.2 9.130   5.0     0     0  2589   221  1.08  0.85  51.8  17.1  1.48  0.00  0.00  0.00  0.00  0.00  0.00   2.0  0.00  0.00  0.00  0.00
 2023  44   165    82  13.9  -6.0 41.00 18.68  0.96  2.64 143.1  4.39 0.810  5.20  4265     9   577  3680  2039  1631     0  0.00     0     0   225    10 300.2 9.522   6.1     0     0  2524   215  1.09  0.85  50.5  25.8  1.89  0.00  0.00  0.00  0.00  0.00  0.00   2.0  0.00  0.00  0.00  0.00
 2023  45   166    83  13.7  -6.0 41.69 18.68  0.96  2.64 213.1  4.33 0.837  5.17  4465     9   595  3862  2030  1813     0  0.00     0     0   289    19 300.2 9.918   7.5     0     0  2462   214  1.10  0.86  48.2  16.4  1.12  0.00  0.00  0.14  0.00  0.00  0.00   2.0  0.00  0.00  0.00  0.00
 2023  46   167    84  14.2  -6.0 42.39 18.68  0.96  2.44 202.6  4.28 0.863  5.14  4655     9   613  4034  2019  1986     0  0.00     0     0   350    29 300.2 10.34   8.7     0     0  2400   212  1.11  0.85  49.9  16.5  0.92  0.15  0.08  0.29  0.00  0.00  0.00   2.0  0.00  0.00  0.00  0.00
 2023  47   168    85  14.1  -6.0 43.10 18.68  0.96  2.64 241.7  4.23 0.895  5.12  4883     9   632  4242  2009  2195     0  0.00     0     0   422    39 300.2 10.77  10.0     0     0  2340   211  1.12  0.86  47.1  14.2  1.26  0.00  0.00  0.03  0.00  0.00  0.00   2.0  0.00  0.00  0.00  0.00
 2023  48   169    86  12.8  -6.0 43.74 18.68  0.96  2.64 174.0  4.18 0.917  5.10  5048     9   646  4393  2000  2346     0  0.00     0     0   477    47 300.2 11.18  11.0     0     0  2287   209  1.13  0.87  92.0  39.0  1.10  0.00  0.00  0.16  0.00  0.00  0.00   2.0  0.00  0.00  0.00  0.00
 2023  49   170    87  17.4  -6.0 44.61 18.68  0.96  2.64 154.7  4.12 0.935  5.05  5194     9   658  4527  1985  2483     0  0.00     0     0   529    60 300.2 11.74  11.8     0     0  2217   207  1.14  0.87  98.8  43.4  7.09  0.00  0.00  0.00  0.00  0.00  0.00   2.0  0.00  0.00  0.00  0.00
 2023  50   171    88  18.8  -6.0 45.55 18.68  0.95  2.64 135.4  4.05 0.950  5.00  5322     9   667  4646  1970  2602     0  0.00     0     0   578    73 300.2 12.36  12.6     0     0  2144   205  1.15  0.87  85.6  41.7  9.43  0.00  0.00  0.00  0.00  0.00  0.00   2.0  0.00  0.00  0.00  0.00
 2023  51   172    89  18.3  -6.0 46.47 18.68  0.95  2.64 166.6  3.98 0.969  4.95  5479     9   679  4792  1956  2750     0  0.00     0     0   635    86 300.2 12.97  13.5     0     0  2076   204  1.16  0.88  80.5  32.2  7.84  0.00  0.00  0.00  0.00  0.00  0.00   2.0  0.00  0.00  0.00  0.00
 2023  52   173    90  16.3  -6.0 47.28 18.68  0.95  2.64 153.6  3.92 0.987  4.91  5625     9   689  4927  1944  2886     0  0.00     0     0   687    98 300.2 13.52  14.2     0     0  2017   202  1.17  0.88  79.4  36.3  9.14  0.00  0.00  0.00  0.00  0.00  0.00   2.0  0.00  0.00  0.00  0.00
 2023  53   174    91  15.3  -6.0 48.05 18.68  0.95  2.64 252.5  3.87 1.022  4.89  5866     9   706  5151  1932  3111     0  0.00     0     0   765   109 300.2 14.05  15.2     0     0  1964   200  1.18  0.89  76.3  21.7  5.75  0.00  0.00  0.00  0.00  0.00  0.00   2.0  0.00  0.00  0.00  0.00
 2023  54   175    92  16.1  -6.0 48.86 18.68  0.95  2.64 253.2  3.81 1.056  4.87  6107     9   722  5377  1918  3235     0  0.00   103   103   844   120 300.2 14.62  16.1     0     0  1910   199  1.19  0.89  73.1  20.1  4.94  0.00  0.00  0.00  0.00  0.00  0.00   2.0  0.00  0.00  0.00  0.00
 2023  55   176    93  13.1  -6.0 49.51 18.68  0.94  2.64 162.6  3.76 1.077  4.84  6263     9   732  5522  1908  3288     0  0.00   195   169   898   130 300.2 15.10  16.6     0     0  1867   197  1.20  0.89  71.4  32.5  6.42  0.00  0.00  0.00  0.00  0.00  0.00   2.0  0.00  0.00  0.00  0.00
 2023  56   177    94  15.6  -6.0 51.36 18.68  0.94  2.64 159.7  3.71 1.096  4.81  6415     9   741  5665  1895  3350     0  0.00   280   234   952   141 300.2 15.67  17.2     0     0  1817   196  1.21  0.90  69.4  30.5  5.32  0.00  0.00  0.00  0.00  0.00  0.00   2.0  0.00  0.00  0.00  0.00
 2023  57   178    95  17.0  -6.0 55.28 18.68  0.94  2.64 258.9  3.66 1.128  4.79  6663     9   755  5899  1887  3456     0  0.00   407   340  1030   149 300.2 16.30  17.9     0     0  1765   194  1.21  0.90  65.2  17.4  2.73  0.00  0.00  0.00  0.00  0.00  0.00   2.0  0.00  0.00  0.00  0.00
 2023  58   179    96  16.0  -6.0 58.98 18.68  0.94  2.64 258.3  3.62 1.160  4.78  6912     9   768  6136  1880  3550     0  0.00   549   448  1109   157 300.2 16.90  18.5     0     0  1718   193  1.21  0.92  61.1  16.5  2.14  0.00  0.00  0.00  0.00  0.00  0.00   2.0  0.00  0.00  0.00  0.00
 2023  59   180    97  16.1  -6.0 68.97 18.68  0.94  2.64 228.0  3.58 1.188  4.77  7133     9   777  6347  1872  3630     0  0.00   681   544  1180   165 300.2 17.52  19.1     0     0  1672   191  1.21  0.93  57.5  17.5  1.88  0.00  0.00  0.00  0.00  0.00  0.00   2.0  0.00  0.00  0.00  0.00
 2023  60   181    98  12.6  -6.0 70.56 18.68  0.93  2.64  77.9  3.55 1.194  4.74  7209     9   780  6420  1868  3637     0  0.00   745   577  1208   171 300.2 18.01  19.3     0     0  1637   190  1.21  0.94  56.4  55.2  4.86  0.00  0.00  0.00  0.00  0.00  0.00   2.0  0.00  0.00  0.00  0.00
 2023  61   182    99  14.6  -6.0 71.27 18.68  0.93  2.64 266.6  3.51 1.231  4.74  7469     9   788  6673  1860  3754     7  0.00   874   700  1283   178 300.2 18.58  19.8 14500 .0001  1598   189  1.21  0.95  52.4  14.4  1.27  0.00  0.00  0.02  0.00  0.00  0.00   2.0  0.00  0.00  0.00  0.00
 2023  62   183   100  14.9  -6.0 72.01 18.68  0.93  2.54 261.3  3.47 1.267  4.74  7725     9   794  6922  1853  3835    25  0.00  1025   830  1348   185 300.2 19.17  20.1 14500 .0002  1559   187  1.21  0.95  48.3  12.7  0.96  0.08  0.04  0.26  0.00  0.00  0.00   2.0  0.00  0.00  0.00  0.00
 2023  63   184   101  14.5  -6.0 72.72 18.68  0.93  1.98 204.2  3.43 1.293  4.73  7924     9   801  7114  1846  3880    51  0.01  1146   944  1387   192 300.2 19.74  20.2 14500 .0003  1522   186  1.21  0.94  45.3  11.9  0.75  0.50  0.25  0.42  0.00  0.00  0.00   2.0  0.00  0.00  0.00  0.00
 2023  64   185   102  15.5  -6.0 73.48 18.68  0.92  1.58 164.4  3.33 1.312  4.64  8083     9   807  7268  1801  3907    91  0.01  1246  1054  1424   223 300.2 20.36  20.5 14500 .0006  1484   185  1.21  0.94  42.9  10.8  0.60  0.81  0.40  0.54  0.00  0.00  0.00   2.0  0.00  0.00  0.00  0.00
 2023  65   186   103  16.9  -6.0 74.31 18.68  0.91  1.38 138.0  3.22 1.303  4.52  8217     9   811  7398  1756  3939   149  0.02  1300  1112  1526   254 300.2 21.04  21.8 14500 .0010  1444   183  1.21  0.94  40.9  10.5  0.52  0.96  0.48  0.60  0.00  0.00  0.00   2.0  0.00  0.00  0.00  0.00
 2023  66   187   104  16.9  -6.0 75.13 18.68  0.91  1.57 121.3  3.11 1.295  4.41  8336     9   813  7514  1712  3973   221  0.03  1324  1184  1602   285 300.2 21.73  22.9 14500 .0015  1405   182  1.21  0.96  89.8  30.1  0.59  0.81  0.41  0.54  0.00  0.00  0.00   2.0  0.00  0.00  0.00  0.00
 2023  67   188   105  18.4  -6.0 76.04 18.68  0.90  2.64 237.5  3.07 1.286  4.35  8571     9   815  7747  1702  4070   314  0.04  1367  1277  1750   294 300.2 22.48  24.5 14500 .0022  1364   180  1.21  0.98  85.7  23.9  4.50  0.00  0.00  0.00  0.00  0.00  0.00   2.0  0.00  0.00  0.00  0.00
 2023  68   189   106  19.7  -6.0 77.00 18.68  0.90  2.64 258.2  3.02 1.277  4.30  8826     9   818  8000  1691  4165   432  0.05  1409  1395  1896   304 300.2 23.28  26.1 14500 .0030  1322   179  1.21  0.98  81.0  20.3  5.83  0.00  0.00  0.00  0.00  0.00  0.00   2.0  0.00  0.00  0.00  0.00
 2023  69   190   107  19.4  -6.0 77.96 18.68  0.90  2.64 267.9  2.97 1.268  4.24  9091     9   820  8263  1680  4254   566  0.07  1449  1529  2034   314 300.2 24.07  27.5 14500 .0039  1283   177  1.21  0.98  76.2  18.5  5.64  0.00  0.00  0.00  0.00  0.00  0.00   2.0  0.00  0.00  0.00  0.00
 2023  70   191   108  19.6  -6.0 78.92 18.68  0.89  2.64 263.3  2.93 1.259  4.19  9352     9   822  8521  1669  4326   721  0.08  1482  1684  2147   323 300.2 24.88  28.7 14500 .0050  1244   175  1.21  0.98  71.4  17.6  4.86  0.00  0.00  0.00  0.00  0.00  0.00   2.0  0.00  0.00  0.00  0.00
 2023  71   192   109  22.8  -6.0 80.01 18.68  0.89  2.64 261.0  2.88 1.248  4.12  9610     9   824  8777  1655  4364   921  0.10  1501  1885  2214   335 300.2 25.81  29.4 14500 .0064  1201   174  1.21  0.98  66.4  15.6  3.39  0.00  0.00  0.00  0.00  0.00  0.00   2.0  0.00  0.18  0.00  0.00
 2023  72   193   110  22.0  -6.0 80.39 18.68  0.89  2.64 265.6  2.85 1.239  4.08  9872     9   827  9037  1655  4389  1142  0.13  1512  2106  2257   339 300.2 26.72  29.9 14500 .0079  1161   172  1.21  0.98  61.3  14.5  2.44  0.00  0.00  0.00  0.00  0.00  0.00   2.0  0.00  0.13  0.00  0.00
 2023  73   194   111  19.8  -6.0 80.73 18.68  0.88  2.64 271.9  2.82 1.230  4.05 10141     9   829  9303  1654  4435  1341  0.14  1531  2304  2328   342 300.2 27.54  30.6 14500 .0092  1127   170  1.21  0.98  57.0  13.6  1.81  0.00  0.00  0.00  0.00  0.00  0.00   2.0  0.00  0.00  0.00  0.00
 2023  74   195   112  19.5  -6.0 81.06 18.68  0.88  2.65 238.5  2.79 1.222  4.02 10377     9   831  9537  1654  4460  1537  0.16  1542  2500  2370   346 300.2 28.34  31.0 14500 .0106  1095   169  1.21  0.98  53.2  14.6  1.54  0.00  0.00  0.00  0.00  0.00  0.00   2.0  0.00  0.00  0.00  0.00
 2023  75   196   113  20.5  -6.0 81.41 18.68  0.88  2.65 218.0  2.77 1.214  3.98 10592     9   833  9751  1652  4463  1743  0.18  1543  2706  2381   350 300.2 29.20  31.1 14500 .0120  1063   167  1.21  0.98  49.8  14.8  1.30  0.00  0.00  0.00  0.00  0.00  0.00   2.0  0.00  0.03  0.00  0.00
 2023  76   197   114  20.0  -6.0 81.75 18.68  0.88  2.65  93.0  2.74 1.206  3.95 10684     9   833  9842  1651  4384  1944  0.20  1510  2907  2275   353 300.2 30.03  30.1 14500 .0134  1032   166  1.21  0.98 101.3  72.6  2.47  0.00  0.00  0.00  0.00  0.00  0.00   2.0  0.00  0.00  0.00  0.00
 2023  77   198   115  19.0  -6.0 82.08 18.68  0.87  2.65 252.8  2.72 1.198  3.92 10934     9   836 10090  1650  4421  2135  0.21  1526  3099  2334   357 300.2 30.83  30.7 14500 .0147  1005   165  1.20  0.98 120.1  31.7  5.56  0.00  0.00  0.00  0.00  0.00  0.00   2.0  0.00  0.00  0.00  0.00
 2023  78   199   116  19.0  -6.0 82.40 18.68  0.87  2.65 264.9  2.69 1.191  3.88 11196     9   838 10349  1649  4467  2327  0.22  1546  3290  2406   360 300.2 31.62  31.4 14500 .0160   978   163  1.20  0.98 100.9  25.3  6.15  0.00  0.00  0.00  0.00  0.00  0.00   2.0  0.00  0.00  0.00  0.00
 2023  79   200   117  19.0  -6.0 82.73 18.68  0.87  2.65 261.9  2.67 1.183  3.85 11455     9   840 10606  1648  4512  2518  0.24  1565  3481  2475   364 300.2 32.42  32.0 14500 .0174   952   162  1.20  0.98  85.8  21.9  5.78  0.00  0.00  0.00  0.00  0.00  0.00   2.0  0.00  0.00  0.00  0.00
 2023  80   201   118  20.1  -6.0 83.07 18.68  0.87  2.65 258.9  2.65 1.176  3.82 11711     9   843 10860  1646  4546  2720  0.25  1580  3683  2530   367 300.2 33.26  32.6 14500 .0188   926   161  1.20  0.98  79.8  20.5  6.12  0.00  0.00  0.00  0.00  0.00  0.00   2.0  0.00  0.01  0.00  0.00
 2023  81   202   119  20.2  -6.0 83.41 18.68  0.86  2.65 258.1  2.62 1.169  3.79 11966     9   845 11113  1645  4579  2923  0.26  1594  3887  2584   371 300.2 34.12  33.0 14500 .0202   901   159  1.20  0.98  74.9  18.8  5.67  0.00  0.00  0.00  0.00  0.00  0.00   2.0  0.00  0.02  0.00  0.00
 2023  82   203   120  19.6  -6.0 83.75 18.68  0.86  2.65 267.7  2.60 1.162  3.76 12231     9   847 11375  1644  4623  3120  0.27  1613  4084  2653   375 300.2 34.94  33.7 14500 .0215   878   158  1.20  0.98  70.0  17.3  4.89  0.00  0.00  0.00  0.00  0.00  0.00   2.0  0.00  0.00  0.00  0.00
 2023  83   204   121  17.6  -6.0 84.05 18.68  0.86  2.65 285.2  2.58 1.155  3.73 12513     9   850 11654  1643  4694  3297  0.28  1643  4260  2759   378 300.2 35.69  34.6 14500 .0227   857   157  1.20  0.98  65.7  15.9  3.57  0.00  0.00  0.00  0.00  0.00  0.00   2.0  0.00  0.00  0.00  0.00
 2023  84   205   122  17.1  -6.0 84.34 18.68  0.86  2.65 273.1  2.56 1.149  3.71 12783     9   852 11922  1641  4759  3469  0.29  1671  4432  2858   381 300.2 36.42  35.4 14500 .0239   839   156  1.20  0.98  61.7  15.8  2.83  0.00  0.00  0.00  0.00  0.00  0.00   2.0  0.00  0.00  0.00  0.00
 2023  85   206   123  17.5  -6.0 84.64 18.68  0.86  2.65 274.7  2.54 1.144  3.68 13055     9   855 12191  1640  4824  3645  0.30  1698  4608  2954   385 300.2 37.16  36.2 14500 .0251   820   155  1.20  0.98  57.6  14.4  2.08  0.00  0.00  0.00  0.00  0.00  0.00   2.0  0.00  0.00  0.00  0.00
 2023  86   207   124  17.5  -6.0 84.94 18.68  0.85  2.65 212.9  2.52 1.138  3.66 13265     9   857 12400  1638  4845  3821  0.31  1708  4784  2990   388 300.2 37.91  36.5 14500 .0264   802   154  1.20  0.98  90.9  29.4  2.02  0.00  0.00  0.00  0.00  0.00  0.00   2.0  0.00  0.00  0.00  0.00
 2023  87   208   125  18.8  -6.0 85.26 18.68  0.85  2.65 255.2  2.50 1.132  3.63 13517     9   859 12650  1636  4887  4009  0.32  1726  4973  3055   392 300.2 38.72  37.0 14500 .0277   784   153  1.20  0.98  83.8  21.8  6.19  0.00  0.00  0.00  0.00  0.00  0.00   2.0  0.00  0.00  0.00  0.00
 2023  88   209   126  18.0  -6.0 85.57 18.68  0.85  2.65 263.5  2.48 1.126  3.60 13778     9   861 12908  1635  4940  4190  0.32  1748  5153  3136   395 300.2 39.49  37.7 14500 .0289   766   152  1.20  0.98  78.9  20.2  6.46  0.00  0.00  0.00  0.00  0.00  0.00   2.0  0.00  0.00  0.00  0.00
 2023  89   210   127  19.3  -6.0 85.90 18.68  0.83  2.65 259.5  2.35 1.120  3.47 14035     9   864 13162  1563  4990  4384  0.33  1785  5347  3242   440 300.2 40.32  38.9 14500 .0302   749   150  1.20  0.98  74.0  18.9  5.92  0.00  0.00  0.00  0.00  0.00  0.00   2.0  0.00  0.00  0.00  0.00
 2023  90   211   128  18.7  -6.0 86.21 18.68  0.82  2.65 281.3  2.22 1.114  3.33 14313     9   866 13438  1485  5061  4572  0.34  1831  5535  3378   489 300.2 41.13  40.3 14500 .0315   732   149  1.20  0.98  68.9  16.5  4.68  0.00  0.00  0.00  0.00  0.00  0.00   2.0  0.00  0.00  0.00  0.00
 2023  91   212   129  19.4  -6.0 86.54 18.68  0.80  2.65 267.7  2.09 1.108  3.20 14578     9   869 13700  1408  5118  4766  0.35  1871  5729  3494   536 300.2 41.97  41.6 14500 .0329   716   148  1.20  0.98  64.7  16.1  3.57  0.00  0.00  0.00  0.00  0.00  0.00   2.0  0.00  0.00  0.00  0.00
 2023  92   213   130  20.8  -6.0 86.90 18.68  0.78  2.65 255.1  1.95 1.102  3.06 14830     9   871 13950  1328  5157  4976  0.36  1904  5939  3584   586 300.2 42.87  42.7 14500 .0343   699   147  1.20  0.98  60.7  15.5  2.71  0.00  0.00  0.00  0.00  0.00  0.00   2.0  0.00  0.06  0.00  0.00
 2023  93   214   131  18.6  -6.0 87.22 18.68  0.75  2.65 236.8  1.81 1.096  2.91 15064     9   873 14182  1241  5199  5163  0.36  1940  6126  3682   639 300.2 43.68  43.9 14500 .0356   684   146  1.20  0.98  57.1  16.4  2.30  0.00  0.00  0.00  0.00  0.00  0.00   2.0  0.00  0.00  0.00  0.00
 2023  94   215   132  17.1  -6.0 87.51 18.68  0.72  2.65 251.8  1.69 1.091  2.78 15313     9   875 14429  1163  5262  5335  0.37  1983  6298  3805   687 300.2 44.43  45.3 14500 .0368   671   145  1.20  0.98  53.5  15.2  1.78  0.00  0.00  0.00  0.00  0.00  0.00   2.0  0.00  0.00  0.00  0.00
 2023  95   216   133  15.9  -6.0 87.78 18.68  0.70  2.65 239.4  1.57 1.087  2.66 15550     9   877 14664  1090  5325  5493  0.37  2025  6456  3926   731 300.2 45.12  46.5 14500 .0379   660   144  1.20  0.98  50.2  15.4  1.50  0.00  0.00  0.00  0.00  0.00  0.00   2.0  0.00  0.00  0.00  0.00
 2023  96   217   134  15.9  -6.0 88.05 18.68  0.67  2.65 242.1  1.46 1.083  2.55 15789     9   879 14901  1022  5390  5651  0.38  2066  6615  4045   772 300.2 45.82  47.7 14500 .0390   649   143  1.20  0.98  46.8  14.1  1.17  0.00  0.00  0.10  0.00  0.00  0.00   2.0  0.00  0.00  0.00  0.00
 2023  97   218   135  17.3  -6.0 88.35 18.68  0.65  2.49 219.8  1.36 1.074  2.43 16006     9   881 15117   953  5408  5825  0.39  2102  6788  4128   828 300.2 46.58  48.8 14500 .0402   637   142  1.20  0.98  43.7  13.3  0.94  0.12  0.06  0.28  0.00  0.00  0.00   2.0  0.00  0.00  0.00  0.00
 2023  98   219   136  19.2  -6.0 88.68 18.68  0.61  2.00 170.9  1.24 1.065  2.31 16175     9   883 15284   877  5378  6018  0.39  2121  6981  4148   890 300.2 47.43  49.5 14500 .0415   624   142  1.20  0.98  41.1  12.4  0.76  0.49  0.24  0.42  0.00  0.00  0.00   1.9  0.00  0.00  0.00  0.00
 2023  99   220   137  20.0  -6.0 89.02 18.68  0.57  1.73 141.9  1.11 1.055  2.17 16315     9   883 15423   792  5323  6219  0.40  2131  7182  4137   957 300.2 48.31  50.2 14500 .0429   611   140  1.20  0.98  39.0  12.1  0.66  0.69  0.34  0.50  0.00  0.00  0.00   1.6  0.00  0.00  0.00  0.00
 2023 100   221   138  19.5  -6.0 89.35 18.68  0.53  1.75 124.1  0.98 1.046  2.03 16437     9   884 15545   703  5261  6415  0.41  2139  7378  4115  1027 300.2 49.17  50.8 14500 .0442   599   139  1.20  0.98  37.1  13.4  0.66  0.68  0.34  0.49  0.00  0.00  0.00   1.5  0.00  0.00  0.00  0.00
 2023 101   222   139  21.5  -6.0 89.72 18.68  0.47  1.56 106.0  0.83 1.036  1.87 16541     9   884 15649   601  5172  6631  0.42  2140  7594  4062  1105 300.2 50.12  51.3 14500 .0457   586   138  1.20  0.98  35.4  13.0  0.59  0.82  0.41  0.55  0.00  0.00  0.00   1.2  0.00  0.10  0.00  0.00
 2023 102   223   140  20.7  -6.0 90.20 18.68  0.41  1.62  97.4  0.69 1.027  1.72 16637     9   885 15744   503  5110  6800  0.43  2151  7764  4046  1179 300.2 51.04  52.1 14500 .0469   574   137  1.20  0.98  34.0  14.5  0.61  0.77  0.39  0.53  0.00  0.00  0.00   1.2  0.00  0.04  0.00  0.00

*DSSAT Cropping System Model Ver. 4.8.2.000 -release  AUG 22, 2025 15:36:35

*RUN   2        : WW23_G-2                  CSCER048 CIOB2301    2
 MODEL          : CSCER048 - Wheat
 EXPERIMENT     : CIOB2301 WH ROOTS ANATOMY
 DATA PATH      : C:\DSSAT48\Wheat\
 TREATMENT  2   : WW23_G-2                  CSCER048
  
@YEAR DOY   DAS   DAP TMEAN TKILL  GSTD  L#SD PARID PARUD  AWAD  LAID  SAID  CAID  TWAD SDWAD  RWAD  CWAD  LWAD  SWAD  HWAD  HIAD CHWAD  EWAD RSWAD SNWPD SNWLD SNWSD  RS%D  H#AD  HWUD  T#AD  SLAD  RDPD  PTFD  SWXD WAVRD WUPRD  WFTD  WFPD  WFGD  NFTD  NFPD  NFGD NUPRD  TFPD  TFGD VRNFD DYLFD
 2022 327    83     0  17.6  -6.0  0.00  0.00  0.00  0.00   0.0  0.00 0.000  0.00    43    43     0     0     0     0     0  0.00     0     0     0     0     0     0   0.0     0     0   150   -99  0.04  0.98  19.7  99.9  1.00  0.00  0.00  0.00  0.00  0.00  0.00   0.0  0.00  0.00  0.50  0.00
 2022 328    84     1  16.4  -6.0  5.84  0.00  0.00  0.00   0.0  0.00 0.000  0.00    43    43     0     0     0     0     0  0.00     0     0     0     0     0     0   0.0     0     0   150   -99  0.04  0.98   7.2  99.9  1.00  0.00  0.00  0.00  0.00  0.00  0.00   0.0  0.00  0.00  0.50  0.00
 2022 329    85     2  17.4  -6.0  8.40  0.00  0.00  0.00   0.0  0.00 0.000  0.00    43    41     2     0     0     0     0  0.00     0     0     0     0     0     0   0.0     0     0   150   -99  0.07  0.98   4.7  99.9  1.00  0.00  0.00  0.00  0.00  0.00  0.00   0.0  0.00  0.00  0.50  0.00
 2022 330    86     3  18.0  -6.0 10.00  0.00  0.00  0.00   0.0  0.00 0.000  0.00    43    39     3     0     0     0     0  0.00     0     0     0     0     0 .0014   0.0     0     0   150   -99  0.10  0.98   4.6  99.9  1.00  0.00  0.00  0.00  0.00  0.00  0.00   2.0  0.00  0.00  0.50  0.00
 2022 331    87     4  16.3  -6.0 10.41  0.41  0.02  0.00   0.0  0.03 0.003  0.03    43    25     5    13     8     4     0  0.00     0     0     0     0     0 .0041   0.0     0     0   150   350  0.13  0.75   5.0  99.9  1.00  0.00  0.00  0.00  0.00  0.00  0.00   0.1  0.00  0.00  0.50  0.31
 2022 332    88     5  16.1  -6.0 10.82  0.82  0.03  1.18   1.8  0.05 0.005  0.05    44    17     6    20    14     7     0  0.00     0     0     0     0 0.126 .0079   0.8     0     0   150   347  0.16  0.71   5.5  97.0  0.57  0.86  0.43  0.56  0.00  0.00  0.00   0.1  0.00  0.00  0.50  0.31
 2022 333    89     6  18.1  -6.0 11.29  1.29  0.04  0.57   1.4  0.06 0.006  0.06    45    12     8    25    17     9     0  0.00     0     0     0     0 0.328 .0135   1.5     0     0   150   347  0.19  0.70   7.2  78.3  0.45  1.00  0.55  0.66  0.38  0.38  0.38   0.3  0.00  0.00  0.50  0.31
 2022 334    90     7  18.5  -6.0 11.75  1.75  0.04  0.57   1.6  0.06 0.006  0.07    46     9     9    28    18    10     0  0.00     0     0     1     0 0.575 .0208   2.2     0     0   150   346  0.23  0.71   9.1  82.3  0.52  0.96  0.48  0.60  0.47  0.47  0.47   0.7  0.00  0.00  0.50  0.31
 2022 335    91     8  19.2  -6.0 12.12  2.12  0.04  0.62   2.0  0.07 0.007  0.07    48     9    10    29    19    10     0  0.00     0     0     1     0 0.844 .0295   2.8     0     0   150   345  0.26  0.71  11.1  89.5  0.54  0.92  0.46  0.58  0.44  0.44  0.44   1.2  0.00  0.00  0.50  0.31
 2022 336    92     9  23.0  -6.0 12.41  2.41  0.04  0.65   2.1  0.07 0.007  0.08    49     9    10    31    20    11     0  0.00     0     0     1     0 1.126 .0406   3.4     0     0   150   344  0.30  0.71  13.5  99.9  0.51  0.97  0.49  0.60  0.39  0.39  0.39   1.4  0.00  0.20  0.50  0.31
 2022 337    93    10  23.0  -6.0 12.71  2.71  0.04  0.74   2.2  0.07 0.007  0.08    51     9    10    32    21    11     0  0.00     0     0     1     0 1.419 .0521   3.9     0     0   158   343  0.35  0.71  16.1  99.9  0.55  0.91  0.45  0.58  0.35  0.35  0.35   1.5  0.00  0.20  0.50  0.31
 2022 338    94    11  22.0  -6.0 12.99  2.99  0.05  0.81   2.4  0.07 0.007  0.08    53     9    11    33    21    12     0  0.00     0     0     1     0 1.723 .0636   4.3     0     0   169   341  0.37  0.72  17.8  99.9  0.57  0.87  0.43  0.57  0.31  0.31  0.31   1.6  0.00  0.13  0.50  0.31
 2022 339    95    12  22.2  -6.0 13.27  3.27  0.05  1.50   1.9  0.08 0.008  0.08    54     9    11    35    23    12     0  0.00     0     0     1     0 1.723 .0756   3.8     0     0   230   341  0.40  0.73  19.5  99.9  1.39  0.00  0.00  0.00  0.28  0.28  0.28   2.0  0.00  0.15  0.50  0.31
 2022 340    96    13  19.7  -6.0 13.52  3.52  0.05  1.56   1.5  0.08 0.008  0.09    56     9    11    36    23    12     0  0.00     0     0     1     0 1.723 .0865   3.3     0     0   287   339  0.42  0.74  23.0  99.9  1.96  0.00  0.00  0.00  0.25  0.25  0.25   2.0  0.00  0.00  0.50  0.32
 2022 341    97    14  20.0  -6.0 21.31  3.77  0.05  1.61   2.6  0.08 0.008  0.09    58     9    12    38    25    13     0  0.00     0     0     1     0 1.723 .0978   2.9     0     0   346   338  0.44  0.74  23.7  99.9  1.22  0.00  0.00  0.06  0.22  0.22  0.22   1.7  0.00  0.00  0.50  0.32
 2022 342    98    15  20.8  -6.0 21.36  4.04  0.06  0.91   3.3  0.09 0.009  0.10    61     9    12    40    26    14     0  0.00     0     0     1     0 2.085 0.110   3.5     0     0   353   337  0.47  0.72  24.7  99.9  0.55  0.90  0.45  0.58  0.20  0.20  0.20   1.4  0.00  0.05  0.50  0.32
 2022 343    99    16  18.0  -6.0 21.38  4.26  0.05  0.90   3.8  0.08 0.008  0.09    61     9    13    40    24    16     0  0.00     0     0     4     0 5.040 0.121  10.7     0     0   357   335  0.49  0.72  26.0  99.9  0.52  0.95  0.48  0.60  0.17  0.17  0.17   1.6  0.00  0.00  0.50  0.32
 2022 344   100    17  17.0  -6.0 21.46  4.48  0.05  1.05   4.2  0.07 0.008  0.08    62     9    14    40    22    18     0  0.00     0     0     7     0 7.833 0.132  16.7     0     0   369   332  0.51  0.73  27.2  99.9  0.59  0.81  0.41  0.54  0.15  0.15  0.15   2.0  0.00  0.00  0.50  0.32
 2022 345   101    18  16.2  -6.0 21.64  4.69  0.05  1.31   4.7  0.07 0.008  0.08    64     9    14    41    22    19     0  0.00     0     0     8     0 10.17 0.143  20.5     0     0   396   330  0.52  0.74  28.3  99.9  0.72  0.56  0.28  0.44  0.12  0.12  0.12   2.0  0.00  0.00  0.50  0.32
 2022 346   102    19  16.1  -6.0 21.89  4.89  0.05  1.49   5.3  0.08 0.008  0.08    67     9    15    44    23    20     0  0.00     0     0     9     0 11.27 0.155  19.9     0     0   433   327  0.54  0.75  29.4  99.9  0.80  0.40  0.20  0.38  0.10  0.10  0.10   2.0  0.00  0.00  0.50  0.32
 2022 347   103    20  15.1  -6.0 22.18  5.08  0.06  1.68   6.1  0.09 0.009  0.10    73     9    16    48    27    21     0  0.00     0     0     8     0 11.27 0.166  16.3     0     0   477   325  0.56  0.76  78.2  99.9  0.88  0.23  0.12  0.32  0.08  0.08  0.08   1.3  0.00  0.00  0.50  0.32
 2022 348   104    21  15.2  -6.0 22.54  5.28  0.06  1.94   8.6  0.10 0.011  0.11    80     9    17    54    31    23     0  0.00     0     0     8     0 11.98 0.178  14.6     0     0   531   322  0.58  0.76  61.4  99.9  2.79  0.00  0.00  0.00  0.06  0.06  0.06   1.8  0.00  0.00  0.50  0.32
 2022 349   105    22  14.6  -6.0 22.89  5.46  0.07  1.97   9.6  0.11 0.012  0.12    88     9    18    61    35    26     0  0.00     0     0     8     0 12.67 0.191  13.1     0     0   584   320  0.59  0.77  46.0  99.9  2.87  0.00  0.00  0.00  0.05  0.05  0.05   2.0  0.00  0.00  0.49  0.32
 2022 350   106    23  12.5  -6.0 23.35  5.62  0.08  2.00   6.1  0.12 0.013  0.13    93     9    19    65    38    27     0  0.00     0     0     8     0 13.27 0.202  12.1     0     0   653   318  0.61  0.77  39.5  99.9  3.38  0.00  0.00  0.00  0.04  0.04  0.04   2.0  0.00  0.00  0.41  0.32
 2022 351   107    24  14.9  -6.0 23.91  5.81  0.08  2.01  11.2  0.14 0.015  0.15   102     9    21    73    43    30     0  0.00     0     0     8     0 13.99 0.217  10.9     0     0   736   316  0.63  0.77  37.7  99.9  1.79  0.00  0.00  0.00  0.03  0.03  0.03   1.0  0.00  0.00  0.41  0.32
 2022 352   108    25  15.5  -6.0 24.48  6.01  0.10  2.03  12.7  0.15 0.017  0.17   113     9    23    82    49    33     0  0.00     0     0     8     0 14.73 0.233   9.9     0     0   823   314  0.64  0.77  38.2  99.9  1.60  0.00  0.00  0.00  0.02  0.02  0.02   1.0  0.00  0.00  0.41  0.32
 2022 353   109    26  14.8  -6.0 25.04  6.20  0.11  2.04  14.6  0.17 0.020  0.19   126     9    25    93    56    36     0  0.00     0     0     8     0 15.30 0.249   8.7     0     0   906   312  0.66  0.77  38.9  99.9  1.38  0.00  0.00  0.00  0.01  0.01  0.01   1.0  0.00  0.00  0.40  0.32
 2022 354   110    27  16.6  -6.0 25.66  6.41  0.12  2.05  15.1  0.20 0.022  0.22   139     9    27   104    63    40     0  0.00     0     0     8     0 15.95 0.270   7.9     0     0   999   310  0.67  0.77  39.8  99.9  1.37  0.00  0.00  0.00  0.01  0.01  0.01   1.0  0.00  0.00  0.40  0.32
 2022 355   111    28  15.2  -6.0 26.24  6.60  0.14  2.06  18.9  0.22 0.025  0.25   155     9    29   118    73    45     0  0.00     0     0     8     0 16.55 0.290   7.0     0     0  1086   308  0.69  0.77  40.5  99.9  1.19  0.00  0.00  0.08  0.01  0.01  0.01   0.9  0.00  0.00  0.40  0.32
 2022 356   112    29  15.3  -6.0 26.81  6.80  0.15  2.04  21.4  0.25 0.029  0.28   174     9    32   134    83    51     0  0.00     0     0     8     0 17.16 0.313   6.3     0     0  1172   306  0.70  0.77  41.1  99.9  1.12  0.00  0.00  0.14  0.02  0.02  0.02   0.9  0.00  0.00  0.40  0.32
 2022 357   113    30  15.9  -6.0 27.41  7.00  0.17  2.02  23.5  0.29 0.033  0.32   195     9    35   151    94    57     0  0.00     0     0     9     0 17.79 0.338   5.7     0     0  1261   305  0.72  0.77  41.8  98.4  1.07  0.00  0.00  0.18  0.03  0.03  0.03   0.9  0.00  0.00  0.40  0.32
 2022 358   114    31  16.2  -6.0 28.00  7.21  0.19  2.00  26.3  0.33 0.038  0.36   218     9    39   171   108    63     0  0.00     0     0     9     0 18.11 0.367   5.0     0     0  1350   303  0.73  0.77  42.4  88.4  1.02  0.00  0.00  0.22  0.04  0.04  0.04   0.9  0.00  0.00  0.40  0.32
 2022 359   115    32  17.8  -6.0 28.60  7.43  0.21  1.87  27.7  0.36 0.042  0.41   243     9    43   192   121    71     0  0.00     0     0     9     0 18.89 0.401   4.7     0     0  1440   302  0.75  0.77  43.1  76.8  0.94  0.11  0.06  0.27  0.04  0.04  0.04   0.9  0.00  0.00  0.46  0.32
 2022 360   116    33  17.0  -6.0 29.13  7.65  0.23  1.78  29.5  0.41 0.047  0.45   269     9    47   214   135    79     0  0.00     0     0     9     0 19.64 0.437   4.4     0     0  1519   300  0.77  0.77  43.7  70.9  0.91  0.19  0.09  0.30  0.05  0.05  0.05   0.9  0.00  0.00  0.46  0.32
 2022 361   117    34  17.5  -6.0 29.61  7.87  0.25  1.71  30.6  0.45 0.053  0.50   296     9    51   236   150    87     0  0.00     0     0    10     0 20.42 0.478   4.2     0     0  1592   298  0.79  0.77  44.4  65.5  0.87  0.27  0.13  0.33  0.05  0.05  0.05   1.0  0.00  0.00  0.50  0.32
 2022 362   118    35  16.6  -6.0 30.00  8.08  0.27  1.99  24.3  0.48 0.057  0.54   317     9    54   254   162    93     0  0.00     0     0    10     0 21.16 0.521   4.0     0     0  1683   297  0.80  0.78  45.1  99.9  1.38  0.00  0.00  0.00  0.04  0.04  0.04   1.3  0.00  0.00  0.50  0.32
 2022 363   119    36  17.2  -6.0 30.00  8.30  0.27  2.01  11.3  0.49 0.058  0.55   325     9    56   261   165    96     0  0.00     0     0    11     0 23.16 0.567   4.4     0     0  1778   297  0.82  0.78  46.3  99.9  3.11  0.00  0.00  0.00  0.03  0.03  0.03   2.0  0.00  0.00  0.50  0.32
 2022 364   120    37  18.6  -6.0 30.00  8.54  0.29  1.69  33.6  0.53 0.063  0.59   354     9    60   285   179   105     0  0.00     0     0    13     0 25.33 0.619   4.6     0     0  1850   295  0.84  0.77  47.0  62.1  0.84  0.33  0.16  0.36  0.03  0.03  0.03   1.1  0.00  0.00  0.50  0.32
 2022 365   121    38  17.8  -6.0 30.00  8.76  0.31  1.59  35.5  0.57 0.068  0.64   383     9    65   310   195   115     0  0.00     0     0    15     0 27.42 0.672   4.8     0     0  1907   293  0.85  0.76  47.6  56.7  0.78  0.43  0.22  0.40  0.02  0.02  0.02   1.2  0.00  0.00  0.50  0.32
 2023   1   122    39  16.6  -6.0 30.00  8.97  0.33  1.86  38.7  0.62 0.075  0.69   417     9    70   338   212   126     0  0.00     0     0    16     0 29.38 0.727   4.8     0     0  1985   292  0.87  0.77  48.0  64.2  0.91  0.18  0.09  0.30  0.01  0.01  0.01   1.1  0.00  0.00  0.50  0.32
 2023   2   123    40  15.1  -6.0 30.00  9.17  0.35  2.06  37.5  0.67 0.081  0.75   449     9    75   366   230   136     0  0.00     0     0    17     0 30.82 0.780   4.6     0     0  2071   291  0.89  0.78  48.4  76.1  1.11  0.00  0.00  0.15  0.01  0.01  0.01   1.2  0.00  0.00  0.50  0.32
 2023   3   124    41  13.8  -6.0 30.00  9.34  0.37  1.65  43.9  0.71 0.087  0.80   485     9    81   395   247   148     0  0.00     0     0    20     0 34.49 0.832   5.0     0     0  2118   289  0.90  0.76  91.1  99.9  0.80  0.40  0.20  0.39  0.00  0.00  0.00   1.0  0.00  0.00  0.46  0.32
 2023   4   125    42  16.3  -6.0 30.00  9.55  0.40  2.07  60.0  0.78 0.096  0.88   536     9    89   438   272   166     0  0.00     0     0    24     0 38.86 0.898   5.4     0     0  2211   287  0.92  0.78  74.6  67.2  2.16  0.00  0.00  0.00  0.00  0.00  0.00   1.6  0.00  0.00  0.46  0.32
 2023   5   126    43  17.6  -6.0 30.00  9.77  0.43  2.07  66.5  0.86 0.106  0.96   592     9    98   486   300   185     0  0.00     0     0    28     0 43.63 0.977   5.7     0     0  2312   285  0.93  0.79  64.5  52.2  2.12  0.00  0.00  0.00  0.00  0.00  0.00   1.7  0.00  0.00  0.48  0.32
 2023   6   127    44  18.3  -6.0 30.00 10.01  0.46  2.07  69.9  0.94 0.117  1.05   651     9   106   536   330   205     0  0.00     0     0    32     0 48.59 1.066   5.9     0     0  2416   284  0.95  0.79  60.7  47.1  1.78  0.00  0.00  0.00  0.00  0.00  0.00   1.4  0.00  0.00  0.48  0.32
 2023   7   128    45  17.7  -6.0 30.00 10.23  0.48  2.07  72.3  1.00 0.127  1.13   708     9   116   584   357   228     0  0.00     0     0    39     0 56.93 1.160   6.7     0     0  2517   281  0.97  0.79  60.4  46.2  1.74  0.00  0.00  0.00  0.00  0.00  0.00   1.4  0.00  0.00  0.48  0.32
 2023   8   129    46  17.3  -6.0 30.00 10.45  0.50  2.07  76.0  1.08 0.137  1.22   770     9   125   636   386   250     0  0.00     0     0    45     0 65.12 1.260   7.1     0     0  2616   280  0.99  0.79  60.2  44.3  1.65  0.00  0.00  0.00  0.00  0.00  0.00   1.5  0.00  0.00  0.48  0.31
 2023   9   130    47  16.6  -6.0 30.00 10.66  0.53  2.07  83.5  1.16 0.149  1.31   838     9   136   694   419   275     0  0.00     0     0    51     0 73.05 1.365   7.3     0     0  2711   278  1.00  0.79  59.9  40.5  1.50  0.00  0.00  0.00  0.00  0.00  0.00   1.4  0.00  0.00  0.48  0.31
 2023  10   131    48  17.2  -6.0 30.00 10.88  0.56  2.07  85.3  1.25 0.162  1.41   908     9   146   753   453   300     0  0.00     0     0    56     0 81.29 1.481   7.5     0     0  2809   276  1.02  0.79  59.6  38.9  1.39  0.00  0.00  0.00  0.00  0.00  0.00   1.3  0.00  0.00  0.48  0.31
 2023  11   132    49  17.9  -6.0 30.00 11.11  0.59  2.07  94.1  1.35 0.176  1.53   986     9   158   819   492   327     0  0.00     0     0    62     0 89.57 1.612   7.5     0     0  2912   275  1.04  0.79  59.1  34.5  1.21  0.00  0.00  0.07  0.00  0.00  0.00   1.2  0.00  0.00  0.50  0.31
 2023  12   133    50  18.4  -6.0 30.00 11.34  0.61  2.07  99.5  1.45 0.190  1.64  1065     9   170   886   530   356     0  0.00     0     0    70     0 101.0 1.758   7.9     0     0  3000   273  1.05  0.79  58.6  32.4  1.12  0.00  0.00  0.14  0.00  0.00  0.00   1.2  0.00  0.00  0.50  0.31
 2023  13   134    51  16.6  -6.0 30.00 11.55  0.63  2.07 102.4  1.55 0.205  1.75  1148     9   183   957   571   386     0  0.00     0     0    77     0 111.5 1.899   8.0     0     0  3000   271  1.07  0.79  58.0  31.8  1.07  0.00  0.00  0.17  0.00  0.00  0.00   1.2  0.00  0.00  0.50  0.31
 2023  14   135    52  17.6  -6.0 30.00 11.78  0.66  1.97 100.1  1.65 0.219  1.86  1229     9   196  1025   610   415     0  0.00     0     0    83     0 122.6 2.061   8.1     0     0  3000   270  1.09  0.79  57.5  30.0  0.95  0.10  0.05  0.27  0.00  0.00  0.00   1.2  0.00  0.00  0.50  0.31
 2023  15   136    53  16.9  -6.0 30.00 11.99  0.67  2.07  74.9  1.71 0.229  1.94  1287     9   205  1073   638   435     0  0.00     0     0    88     0 133.3 2.226   8.2     0     0  3000   269  1.10  0.79  57.4  43.9  1.29  0.00  0.00  0.01  0.00  0.00  0.00   1.8  0.00  0.00  0.50  0.31
 2023  16   137    54  17.0  -6.0 30.00 12.21  0.69  1.71  91.8  1.82 0.245  2.07  1364     9   217  1139   681   458     0  0.00     0     0    88     0 139.1 2.399   7.7     0     0  3000   268  1.12  0.78  57.1  29.2  0.82  0.35  0.18  0.37  0.00  0.00  0.00   1.4  0.00  0.00  0.50  0.31
 2023  17   138    55  14.1  -6.0 30.00 12.39  0.70  2.07  34.5  1.84 0.249  2.09  1387     9   221  1157   691   466     0  0.00     0     0    89     0 148.2 2.552   7.7     0     0  3000   267  1.14  0.79  57.8  99.9  2.68  0.00  0.00  0.00  0.00  0.00  0.00   2.0  0.00  0.00  0.47  0.31
 2023  18   139    56  13.8  -6.0 30.00 12.56  0.72  1.68  90.5  1.93 0.262  2.20  1460     9   233  1219   729   490     0  0.00     0     0    92     0 157.2 2.704   7.6     0     0  3000   265  1.15  0.78  57.2  31.0  0.81  0.38  0.19  0.38  0.00  0.00  0.00   1.3  0.00  0.00  0.43  0.31
 2023  19   140    57  14.2  -6.0 30.00 12.74  0.73  1.55  84.9  2.02 0.275  2.29  1528     9   244  1275   763   512     0  0.00     0     0    95     0 166.5 2.870   7.4     0     0  3000   264  1.16  0.77  56.8  29.8  0.75  0.50  0.25  0.42  0.00  0.00  0.00   1.5  0.00  0.00  0.41  0.31
 2023  20   141    58  13.8  -6.0 30.00 12.92  0.74  1.31  81.7  2.09 0.287  2.38  1592     9   256  1328   796   532     0  0.00     0     0    97     0 175.5 3.038   7.3     0     0  3000   263  1.18  0.76 111.1  51.1  0.63  0.74  0.37  0.51  0.00  0.00  0.00   1.6  0.00  0.00  0.37  0.31
 2023  21   142    59  14.1  -6.0 30.00 13.10  0.77  2.07 132.6  2.24 0.308  2.55  1705     9   272  1424   855   569     0  0.00     0     0   101     0 184.8 3.219   7.1     0     0  3000   262  1.19  0.80  94.4  42.1  3.36  0.00  0.00  0.00  0.00  0.00  0.00   1.9  0.00  0.00  0.34  0.30
 2023  22   143    60  14.1  -6.0 30.00 13.27  0.78  2.07 139.9  2.35 0.327  2.68  1815     9   289  1517   905   612     0  0.00     0     0   114     0 203.2 3.410   7.5     0     0  3000   260  1.20  0.80  84.9  35.8  3.37  0.00  0.00  0.00  0.00  0.00  0.00   1.9  0.00  0.00  0.31  0.30
 2023  23   144    61  12.6  -6.0 30.00 13.43  0.80  2.07 121.0  2.45 0.343  2.80  1909     9   303  1598   949   648     0  0.00     0     0   124     0 219.7 3.591   7.7     0     0  3000   258  1.22  0.80  82.1  41.8  3.89  0.00  0.00  0.00  0.00  0.00  0.00   2.0  0.00  0.00  0.24  0.30
 2023  24   145    62  13.1  -6.0 30.00 13.60  0.81  2.07 146.3  2.58 0.364  2.95  2026     9   320  1697  1006   692     0  0.00     0     0   134     0 237.1 3.789   7.9     0     0  3000   257  1.22  0.80  79.0  32.9  3.11  0.00  0.00  0.00  0.00  0.00  0.00   2.0  0.00  0.00  0.18  0.30
 2023  25   146    63  14.5  -6.0 30.00 13.78  0.83  2.07 150.1  2.77 0.393  3.16  2161     9   338  1815  1085   730     0  0.00     0     0   129     0 240.1 4.021   7.1     0     0  3000   255  1.22  0.80  75.5  29.5  2.76  0.00  0.00  0.00  0.00  0.00  0.00   2.0  0.00  0.00  0.00  0.00
 2023  26   147    64  15.7  -6.0 30.00 13.98  0.85  2.07 142.0  2.94 0.419  3.36  2288     9   355  1925  1158   766     0  0.00     0     0   126     0 244.0 4.286   6.6     0     0  3000   254  1.22  0.80  72.5  29.3  2.73  0.00  0.00  0.00  0.00  0.00  0.00   1.9  0.00  0.00  0.00  0.00
 2023  27   148    65  12.1  -6.0 30.00 14.14  0.87  2.07 115.8  3.08 0.441  3.53  2391     9   368  2015  1220   795     0  0.00     0     0   122     0 247.1 4.501   6.1     0     0  3000   253  1.22  0.81  70.3  37.1  3.24  0.00  0.00  0.00  0.00  0.00  0.00   2.0  0.00  0.00  0.00  0.00
 2023  28   149    66  15.6  -6.0 30.00 14.34  0.88  2.07 131.0  3.23 0.465  3.70  2508     9   383  2117  1286   831     0  0.00     0     0   120     0 251.0 4.788   5.7     0     0  3000   251  1.22  0.81  67.9  29.2  2.38  0.00  0.00  0.00  0.00  0.00  0.00   2.0  0.00  0.00  0.00  0.00
 2023  29   150    67  14.4  -6.0 30.30 14.52  0.89  2.07 161.1  3.41 0.495  3.90  2653     9   401  2244  1366   878     0  0.00     0     0   121     0 254.7 5.065   5.4     0     0  3000   250  1.22  0.81  65.0  23.3  1.74  0.00  0.00  0.00  0.00  0.00  0.00   1.9  0.00  0.00  0.00  0.00
 2023  30   151    68  14.6  -6.0 30.99 14.70  0.90  2.07 145.9  3.57 0.522  4.09  2784     9   417  2359  1437   922     0  0.00     0     0   122     0 258.4 5.356   5.2     0     0  3000   248  1.22  0.81  62.4  24.5  1.65  0.00  0.00  0.00  0.00  0.00  0.00   2.0  0.00  0.00  0.00  0.00
 2023  31   152    69  14.5  -6.0 31.68 14.89  0.91  2.07 151.4  3.73 0.549  4.28  2920     9   433  2479  1510   969     0  0.00     0     0   123     0 262.1 5.658   5.0     0     0  3000   247  1.22  0.82  59.7  22.6  1.40  0.00  0.00  0.00  0.00  0.00  0.00   2.0  0.00  0.00  0.00  0.00
 2023  32   153    70  13.4  -6.0 32.32 15.06  0.92  2.07 114.3  3.85 0.571  4.42  3022     9   445  2569  1561  1008     0  0.00     0     0   122     0 265.6 5.947   4.8     0     0  3000   247  1.22  0.82  57.7  29.9  1.67  0.00  0.00  0.00  0.00  0.00  0.00   2.0  0.00  0.00  0.00  0.00
 2023  33   154    71  15.9  -6.0 33.07 15.26  0.93  2.07 158.0  4.00 0.600  4.60  3165     9   462  2695  1628  1067     0  0.00     0     0   126     0 269.7 6.300   4.7     0     0  3000   246  1.22  0.82  54.8  19.3  1.03  0.00  0.00  0.21  0.00  0.00  0.00   2.0  0.00  0.00  0.00  0.00
 2023  34   155    72  16.9  -6.0 33.88 15.47  0.93  1.76 134.5  4.13 0.624  4.75  3284     9   477  2799  1682  1117     0  0.00     0     0   128     0 274.0 6.689   4.6     0     0  3000   245  1.22  0.81  96.2  32.5  0.85  0.30  0.15  0.35  0.00  0.00  0.00   2.0  0.00  0.00  0.00  0.00
 2023  35   156    73  16.9  -6.0 34.68 15.69  0.94  2.07 165.2  4.28 0.653  4.93  3433     9   493  2931  1751  1181     0  0.00     0     0   134     0 278.4 7.092   4.6     0     0  3000   245  1.22  0.83  89.4  28.8  3.70  0.00  0.00  0.00  0.00  0.00  0.00   2.0  0.00  0.00  0.00  0.00
 2023  36   157    74  18.1  -6.0 35.54 15.92  0.94  2.07 166.3  4.43 0.683  5.11  3583     9   510  3064  1818  1246     0  0.00     0     0   140     0 283.1 7.539   4.6     0     0  3000   244  1.22  0.83  83.4  26.0  4.53  0.00  0.00  0.00  0.00  0.00  0.00   2.0  0.00  0.00  0.00  0.00
 2023  37   158    75  16.7  -6.0 36.34 16.13  0.95  2.07 160.5  4.57 0.713  5.28  3728     9   526  3194  1883  1311     0  0.00     0     0   146     0 287.5 7.965   4.6     0     0  3000   243  1.22  0.83  80.1  26.9  4.96  0.00  0.00  0.00  0.00  0.00  0.00   2.0  0.00  0.00  0.00  0.00
 2023  38   159    76  16.2  -6.0 37.11 16.34  0.95  2.07 175.1  4.72 0.745  5.46  3887     9   542  3336  1952  1384     0  0.00     0     0   154     0 291.7 8.391   4.6     0     0  3000   242  1.22  0.84  76.6  24.0  4.31  0.00  0.00  0.00  0.00  0.00  0.00   2.0  0.00  0.00  0.00  0.00
 2023  39   160    77  18.1  -6.0 37.98 16.57  0.96  2.07 180.9  4.86 0.777  5.64  4051     9   559  3483  2023  1460     0  0.00     0     0   163     0 296.5 8.883   4.7     0     0  3000   240  1.22  0.84  72.8  20.9  3.57  0.00  0.00  0.00  0.00  0.00  0.00   2.0  0.00  0.00  0.00  0.00
 2023  40   161    78  15.1  -6.0 38.70 16.76  0.96  2.07 183.7  5.01 0.811  5.82  4219     9   576  3634  2094  1540     0  0.00     0     0   172     0 300.5 9.306   4.7     0     0  3000   239  1.22  0.84  69.2  20.7  2.97  0.00  0.00  0.00  0.00  0.00  0.00   2.0  0.00  0.00  0.00  0.00
 2023  41   162    79  17.1  -6.0 39.51 16.98  0.96  2.07 162.5  5.13 0.841  5.98  4366     9   591  3767  2154  1612     0  0.00     0     0   179     0 305.0 9.800   4.7     0     0  3000   238  1.22  0.85  65.9  21.3  2.62  0.00  0.00  0.00  0.00  0.00  0.00   2.0  0.00  0.00  0.00  0.00
 2023  42   163    80  14.0  -6.0 40.19 17.16  0.97  2.07  59.0  5.19 0.853  6.04  4417     9   596  3813  2172  1641     0  0.00     0     0   172     0 308.7 10.21   4.5     0     0  3000   239  1.22  0.85  64.8  62.6  6.49  0.00  0.00  0.00  0.00  0.00  0.00   2.0  0.00  0.00  0.00  0.00
 2023  43   164    81  15.7  -6.0 40.97 17.16  0.96  2.72 217.8  5.15 0.880  6.03  4622     9   615  3998  2222  1765     0  0.00     0     0   240    12 308.7 10.68   6.0     0     0  3000   232  1.22  0.85  61.5  20.3  2.08  0.00  0.00  0.00  0.00  0.00  0.00   2.0  0.00  0.00  0.00  0.00
 2023  44   165    82  13.9  -6.0 41.67 17.16  0.96  2.72 146.8  5.11 0.898  6.01  4759     9   627  4124  2212  1890     0  0.00     0     0   288    22 308.7 11.11   7.0     0     0  3000   231  1.22  0.85  59.5  30.6  2.73  0.00  0.00  0.00  0.00  0.00  0.00   2.0  0.00  0.00  0.00  0.00
 2023  45   166    83  13.7  -6.0 42.36 17.16  0.96  2.72 218.7  5.05 0.926  5.98  4965     9   645  4311  2201  2078     0  0.00     0     0   354    32 308.7 11.54   8.3     0     0  2931   230  1.22  0.86  56.3  19.2  1.62  0.00  0.00  0.00  0.00  0.00  0.00   2.0  0.00  0.00  0.00  0.00
 2023  46   167    84  14.2  -6.0 43.06 17.16  0.96  2.72 224.9  4.99 0.955  5.95  5177     9   664  4505  2190  2273     0  0.00     0     0   423    43 308.7 11.99   9.5     0     0  2862   228  1.22  0.86  56.8  18.9  1.34  0.00  0.00  0.00  0.00  0.00  0.00   2.0  0.00  0.00  0.00  0.00
 2023  47   168    85  14.1  -6.0 43.77 17.16  0.96  2.72 248.1  4.93 0.987  5.92  5412     9   683  4720  2178  2488     0  0.00     0     0   498    54 308.7 12.46  10.7     0     0  2795   226  1.22  0.87  53.3  16.1  1.56  0.00  0.00  0.00  0.00  0.00  0.00   2.0  0.00  0.00  0.00  0.00
 2023  48   169    86  12.8  -6.0 44.41 17.16  0.96  2.72 178.6  4.88 1.010  5.89  5580     9   697  4875  2168  2643     0  0.00     0     0   554    63 308.7 12.90  11.5     0     0  2736   225  1.22  0.87  97.5  41.5  1.53  0.00  0.00  0.00  0.00  0.00  0.00   2.0  0.00  0.00  0.00  0.00
 2023  49   170    87  17.4  -6.0 45.28 17.16  0.96  2.72 158.8  4.81 1.028  5.83  5730     9   708  5014  2153  2784     0  0.00     0     0   609    77 308.7 13.51  12.3     0     0  2657   223  1.21  0.87 103.9  45.8  7.89  0.00  0.00  0.00  0.00  0.00  0.00   2.0  0.00  0.00  0.00  0.00
 2023  50   171    88  18.8  -6.0 46.22 17.16  0.95  2.72 139.0  4.73 1.043  5.77  5862     9   718  5135  2136  2908     0  0.00     0     0   660    91 308.7 14.17  13.1     0     0  2575   221  1.21  0.88  90.6  44.4  9.82  0.00  0.00  0.00  0.00  0.00  0.00   2.0  0.00  0.00  0.00  0.00
 2023  51   172    89  18.3  -6.0 47.14 17.16  0.95  2.72 171.0  4.65 1.063  5.71  6024     9   730  5286  2121  3060     0  0.00     0     0   720   105 308.7 14.83  13.9     0     0  2498   219  1.21  0.88  84.2  33.8  8.47  0.00  0.00  0.00  0.00  0.00  0.00   2.0  0.00  0.00  0.00  0.00
 2023  52   173    90  16.3  -6.0 47.96 17.16  0.95  2.72 157.7  4.58 1.081  5.67  6174     9   740  5426  2108  3200     0  0.00     0     0   774   118 308.7 15.43  14.6     0     0  2432   218  1.21  0.89  82.3  37.8  9.86  0.00  0.00  0.00  0.00  0.00  0.00   2.0  0.00  0.00  0.00  0.00
 2023  53   174    91  15.3  -6.0 48.72 17.16  0.95  2.72 259.2  4.52 1.116  5.64  6421     9   756  5656  2095  3432     0  0.00     0     0   855   130 308.7 15.99  15.5     0     0  2371   216  1.21  0.89  78.4  22.4  6.20  0.00  0.00  0.00  0.00  0.00  0.00   2.0  0.00  0.00  0.00  0.00
 2023  54   175    92  16.1  -6.0 49.53 17.16  0.94  2.72 259.9  4.46 1.151  5.61  6670     9   772  5889  2080  3561     0  0.00   106   106   938   142 308.7 16.60  16.3     0     0  2309   214  1.21  0.89  74.5  20.5  5.54  0.00  0.00  0.00  0.00  0.00  0.00   2.0  0.00  0.00  0.00  0.00
 2023  55   176    93  13.1  -6.0 50.94 17.16  0.94  2.72 166.9  4.40 1.172  5.58  6829     9   782  6038  2069  3615     0  0.00   202   174   993   153 308.7 17.11  16.9     0     0  2260   213  1.21  0.90  72.1  33.0  7.72  0.00  0.00  0.00  0.00  0.00  0.00   2.0  0.00  0.00  0.00  0.00
 2023  56   177    94  15.6  -6.0 54.79 17.16  0.94  2.72 164.0  4.35 1.189  5.54  6986     9   791  6187  2061  3676     0  0.00   289   241  1046   161 308.7 17.72  17.4     0     0  2203   211  1.21  0.90  69.6  30.8  6.45  0.00  0.00  0.00  0.00  0.00  0.00   2.0  0.00  0.00  0.00  0.00
 2023  57   178    95  17.0  -6.0 58.96 17.16  0.94  2.72 265.9  4.30 1.221  5.52  7242     9   804  6429  2052  3787     0  0.00   420   352  1127   169 308.7 18.39  18.0     0     0  2144   210  1.21  0.91  65.5  17.5  3.34  0.00  0.00  0.00  0.00  0.00  0.00   2.0  0.00  0.00  0.00  0.00
 2023  58   179    96  16.0  -6.0 68.33 17.16  0.94  2.72 265.3  4.25 1.254  5.51  7499     9   815  6675  2044  3885     0  0.00   567   463  1209   178 308.7 19.04  18.6     0     0  2089   208  1.21  0.93  61.4  16.6  2.64  0.00  0.00  0.00  0.00  0.00  0.00   2.0  0.00  0.00  0.00  0.00
 2023  59   180    97  16.1  -6.0 70.67 17.16  0.93  2.72 234.2  4.20 1.283  5.49  7726     9   824  6894  2036  3968     0  0.00   704   563  1284   186 308.7 19.69  19.1     0     0  2036   206  1.21  0.94  57.7  17.6  2.33  0.00  0.00  0.00  0.00  0.00  0.00   2.0  0.00  0.00  0.00  0.00
 2023  60   181    98  12.6  -6.0 71.29 17.16  0.93  2.72  80.0  4.17 1.289  5.46  7804     9   826  6970  2031  3970     7  0.00   769   604  1306   193 308.7 20.21  19.3 16435 .0000  1995   205  1.21  0.95  56.6  55.6  6.03  0.00  0.00  0.00  0.00  0.00  0.00   2.0  0.00  0.00  0.00  0.00
 2023  61   182    99  14.6  -6.0 72.00 17.16  0.93  2.72 273.9  4.12 1.326  5.45  8073     9   832  7232  2023  4084    25  0.00   901   741  1375   201 308.7 20.82  19.6 16435 .0002  1949   204  1.21  0.96  52.6  14.5  1.58  0.00  0.00  0.00  0.00  0.00  0.00   2.0  0.00  0.00  0.00  0.00
 2023  62   183   100  14.9  -6.0 72.73 17.16  0.93  2.72 279.7  4.08 1.365  5.44  8348     9   837  7502  2015  4166    53  0.01  1060   893  1435   209 308.7 21.44  19.8 16435 .0003  1904   202  1.21  0.97  48.4  12.8  1.19  0.00  0.00  0.09  0.00  0.00  0.00   2.0  0.00  0.00  0.00  0.00
 2023  63   184   101  14.5  -6.0 73.43 17.16  0.93  2.48 255.5  4.04 1.400  5.44  8600     9   842  7749  2007  4229    90  0.01  1207  1042  1480   216 308.7 22.04  19.9 16435 .0005  1862   201  1.21  0.97  44.7  11.7  0.91  0.18  0.09  0.30  0.00  0.00  0.00   2.0  0.00  0.00  0.00  0.00
 2023  64   185   102  15.5  -6.0 74.19 17.16  0.93  1.88 196.1  3.99 1.392  5.38  8792     9   846  7937  1998  4291   143  0.02  1280  1095  1623   225 308.7 22.70  21.4 16435 .0009  1817   200  1.21  0.96  41.9  10.6  0.69  0.62  0.31  0.47  0.00  0.00  0.00   2.0  0.00  0.00  0.00  0.00
 2023  65   186   103  16.9  -6.0 75.01 17.16  0.92  1.59 159.5  3.86 1.383  5.24  8948     9   850  8089  1948  4352   216  0.03  1313  1168  1737   259 308.7 23.41  22.8 16435 .0013  1770   198  1.21  0.96  39.6  10.2  0.58  0.83  0.42  0.55  0.00  0.00  0.00   2.0  0.00  0.00  0.00  0.00
 2023  66   187   104  16.9  -6.0 75.83 17.16  0.92  1.77 137.3  3.81 1.374  5.19  9083     9   851  8223  1939  4385   304  0.04  1328  1256  1792   268 308.7 24.13  23.4 16435 .0018  1724   197  1.21  0.97  88.6  29.5  0.65  0.70  0.35  0.50  0.00  0.00  0.00   2.0  0.00  0.00  0.00  0.00
 2023  67   188   105  18.4  -6.0 76.73 17.16  0.91  2.72 246.4  3.76 1.364  5.12  9326     9   853  8465  1928  4478   414  0.05  1366  1366  1933   278 308.7 24.91  24.9 16435 .0025  1676   195  1.21  0.98  84.4  23.4  4.40  0.00  0.00  0.00  0.00  0.00  0.00   2.0  0.00  0.00  0.00  0.00
 2023  68   189   106  19.7  -6.0 77.69 17.16  0.91  2.72 268.0  3.70 1.354  5.06  9591     9   856  8727  1916  4568   551  0.06  1403  1503  2070   289 308.7 25.75  26.2 16435 .0034  1626   193  1.21  0.98  79.8  19.8  5.71  0.00  0.00  0.00  0.00  0.00  0.00   2.0  0.00  0.00  0.00  0.00
 2023  69   190   107  19.4  -6.0 78.64 17.16  0.91  2.72 278.2  3.65 1.344  4.99  9866     9   858  9000  1904  4652   705  0.08  1438  1657  2199   300 308.7 26.58  27.5 16435 .0043  1579   192  1.21  0.98  75.0  18.1  5.75  0.00  0.00  0.00  0.00  0.00  0.00   2.0  0.00  0.00  0.00  0.00
 2023  70   191   108  19.6  -6.0 79.59 17.16  0.90  2.72 273.5  3.60 1.335  4.93 10137     9   861  9268  1892  4718   881  0.10  1466  1833  2302   310 308.7 27.42  28.5 16435 .0054  1533   190  1.21  0.98  70.3  17.2  4.99  0.00  0.00  0.00  0.00  0.00  0.00   2.0  0.00  0.00  0.00  0.00
 2023  71   192   109  22.8  -6.0 80.25 17.16  0.90  2.72 271.2  3.53 1.324  4.86 10405     9   863  9534  1878  4747  1106  0.12  1480  2058  2356   323 308.7 28.40  29.1 16435 .0067  1482   188  1.21  0.98  65.3  15.2  3.50  0.00  0.00  0.00  0.00  0.00  0.00   2.0  0.00  0.18  0.00  0.00
 2023  72   193   110  22.0  -6.0 80.64 17.16  0.90  2.72 276.1  3.50 1.313  4.81 10678     9   865  9804  1877  4773  1337  0.14  1490  2289  2399   328 308.7 29.35  29.5 16435 .0081  1434   186  1.21  0.98  60.2  14.1  2.55  0.00  0.00  0.00  0.00  0.00  0.00   2.0  0.00  0.13  0.00  0.00
 2023  73   194   111  19.8  -6.0 80.99 17.16  0.89  2.72 282.7  3.46 1.304  4.77 10958     9   868 10081  1876  4820  1545  0.15  1508  2497  2473   332 308.7 30.21  30.1 16435 .0094  1393   185  1.21  0.98  55.5  13.1  1.90  0.00  0.00  0.00  0.00  0.00  0.00   2.0  0.00  0.00  0.00  0.00
 2023  74   195   112  19.5  -6.0 81.33 17.16  0.89  2.72 248.0  3.43 1.296  4.73 11203     9   870 10324  1875  4846  1750  0.17  1518  2702  2515   336 308.7 31.05  30.5 16435 .0106  1354   183  1.21  0.98  51.7  14.1  1.62  0.00  0.00  0.00  0.00  0.00  0.00   2.0  0.00  0.00  0.00  0.00
 2023  75   196   113  20.5  -6.0 81.69 17.16  0.89  2.72 226.8  3.40 1.286  4.69 11427     9   872 10547  1873  4848  1965  0.19  1520  2917  2526   340 308.7 31.94  30.7 16435 .0120  1315   182  1.21  0.98  48.3  14.2  1.36  0.00  0.00  0.00  0.00  0.00  0.00   2.0  0.00  0.03  0.00  0.00
 2023  76   197   114  20.0  -6.0 82.04 17.16  0.89  2.72  96.8  3.37 1.278  4.65 11522     9   872 10641  1872  4763  2176  0.20  1487  3128  2415   344 308.7 32.82  29.7 16435 .0132  1278   180  1.21  0.98 100.4  71.0  2.59  0.00  0.00  0.00  0.00  0.00  0.00   2.0  0.00  0.00  0.00  0.00
 2023  77   198   115  19.0  -6.0 82.38 17.16  0.89  2.72 263.0  3.34 1.270  4.61 11782     9   874 10899  1871  4802  2376  0.22  1502  3328  2476   348 308.7 33.65  30.3 16435 .0145  1244   178  1.20  0.98 118.2  30.9  5.52  0.00  0.00  0.00  0.00  0.00  0.00   2.0  0.00  0.00  0.00  0.00
 2023  78   199   116  19.0  -6.0 82.71 17.16  0.88  2.72 275.6  3.31 1.262  4.57 12055     9   877 11169  1869  4850  2576  0.23  1521  3528  2550   352 308.7 34.48  30.9 16435 .0157  1211   177  1.20  0.98 100.5  24.9  6.32  0.00  0.00  0.00  0.00  0.00  0.00   2.0  0.00  0.00  0.00  0.00
 2023  79   200   117  19.0  -6.0 83.05 17.16  0.88  2.72 272.5  3.28 1.254  4.53 12324     9   879 11436  1867  4897  2777  0.24  1540  3728  2621   356 308.7 35.32  31.6 16435 .0169  1179   176  1.20  0.98  85.7  21.7  6.02  0.00  0.00  0.00  0.00  0.00  0.00   2.0  0.00  0.00  0.00  0.00
 2023  80   201   118  20.1  -6.0 83.40 17.16  0.88  2.72 269.5  3.25 1.246  4.50 12591     9   882 11701  1865  4933  2988  0.26  1554  3940  2678   361 308.7 36.20  32.1 16435 .0182  1147   174  1.20  0.98  80.1  20.3  6.43  0.00  0.00  0.00  0.00  0.00  0.00   2.0  0.00  0.01  0.00  0.00
 2023  81   202   119  20.2  -6.0 83.76 17.16  0.88  2.72 268.7  3.22 1.238  4.46 12856     9   884 11964  1864  4967  3201  0.27  1568  4153  2733   365 308.7 37.09  32.5 16435 .0195  1116   173  1.20  0.98  75.2  18.7  5.97  0.00  0.00  0.00  0.00  0.00  0.00   2.0  0.00  0.02  0.00  0.00
 2023  82   203   120  19.6  -6.0 84.10 17.16  0.87  2.72 278.7  3.19 1.230  4.42 13132     9   886 12237  1862  5013  3407  0.28  1586  4359  2805   369 308.7 37.96  33.1 16435 .0207  1087   171  1.20  0.98  70.3  17.2  5.39  0.00  0.00  0.00  0.00  0.00  0.00   2.0  0.00  0.00  0.00  0.00
 2023  83   204   121  17.6  -6.0 84.41 17.16  0.87  2.72 297.0  3.16 1.224  4.39 13426     9   889 12528  1861  5088  3592  0.29  1615  4543  2915   373 308.7 38.74  34.0 16435 .0219  1062   170  1.20  0.98  65.7  15.7  4.02  0.00  0.00  0.00  0.00  0.00  0.00   2.0  0.00  0.00  0.00  0.00
 2023  84   205   122  17.1  -6.0 84.71 17.16  0.87  2.72 284.4  3.14 1.217  4.36 13707     9   892 12807  1859  5157  3771  0.29  1642  4723  3017   377 308.7 39.50  34.8 16435 .0229  1038   169  1.20  0.98  61.6  15.6  3.18  0.00  0.00  0.00  0.00  0.00  0.00   2.0  0.00  0.00  0.00  0.00
 2023  85   206   123  17.5  -6.0 85.02 17.16  0.87  2.72 286.1  3.12 1.211  4.33 13990     9   895 13087  1857  5225  3955  0.30  1669  4907  3118   381 308.7 40.28  35.6 16435 .0241  1015   168  1.20  0.98  57.5  14.2  2.35  0.00  0.00  0.00  0.00  0.00  0.00   2.0  0.00  0.00  0.00  0.00
 2023  86   207   124  17.5  -6.0 85.33 17.16  0.87  2.72 221.7  3.09 1.205  4.29 14209     9   896 13305  1855  5247  4140  0.31  1678  5092  3154   385 308.7 41.06  35.9 16435 .0252   992   167  1.20  0.98  90.3  28.8  2.28  0.00  0.00  0.00  0.00  0.00  0.00   2.0  0.00  0.00  0.00  0.00
 2023  87   208   125  18.8  -6.0 85.65 17.16  0.86  2.72 265.9  3.06 1.198  4.26 14472     9   899 13565  1853  5292  4337  0.32  1695  5289  3222   389 308.7 41.91  36.5 16435 .0264   969   165  1.20  0.98  83.7  21.6  6.00  0.00  0.00  0.00  0.00  0.00  0.00   2.0  0.00  0.00  0.00  0.00
 2023  88   209   126  18.0  -6.0 85.97 17.16  0.86  2.72 274.6  3.04 1.192  4.23 14744     9   901 13834  1851  5347  4526  0.33  1717  5478  3306   393 308.7 42.71  37.1 16435 .0275   947   164  1.20  0.98  78.9  19.9  6.68  0.00  0.00  0.00  0.00  0.00  0.00   2.0  0.00  0.00  0.00  0.00
 2023  89   210   127  19.3  -6.0 86.31 17.16  0.86  2.72 270.3  3.01 1.185  4.20 15011     9   904 14099  1848  5391  4729  0.34  1734  5681  3373   397 308.7 43.58  37.6 16435 .0288   925   163  1.20  0.98  73.9  18.6  6.21  0.00  0.00  0.00  0.00  0.00  0.00   2.0  0.00  0.00  0.00  0.00
[...]
 2023  37   158    65  16.7  -6.0 33.70 10.14  0.56  0.72  32.6  1.07 0.143  1.21   847    15   164   668   391   277     0  0.00     0     0    56     0 138.7 2.596   8.4     0     0   557   274  0.88  0.76  37.5  22.8  0.34  1.00  0.66  0.74  0.00  0.00  0.00   2.0  0.00  0.00  0.00  0.00
 2023  38   159    66  16.2  -6.0 34.47 10.29  0.56  0.66  33.0  1.09 0.146  1.23   870    15   168   686   399   287     0  0.00     0     0    60     0 145.3 2.728   8.7     0     0   557   272  0.89  0.76  37.6  21.2  0.31  1.00  0.69  0.76  0.00  0.00  0.00   2.0  0.00  0.00  0.00  0.00
 2023  39   160    67  18.1  -6.0 35.34 10.46  0.57  0.60  31.1  1.10 0.149  1.25   891    15   173   703   405   298     0  0.00     0     0    63     0 152.1 2.881   9.0     0     0   557   271  0.90  0.76  37.8  19.5  0.28  1.00  0.72  0.78  0.00  0.00  0.00   2.0  0.00  0.00  0.00  0.00
 2023  40   161    68  15.1  -6.0 36.06 10.59  0.57  0.62  32.6  1.11 0.153  1.26   913    15   177   721   412   308     0  0.00     0     0    66     0 158.7 3.012   9.2     0     0   557   270  0.91  0.76  38.0  20.3  0.29  1.00  0.71  0.78  0.00  0.00  0.00   2.0  0.00  0.00  0.00  0.00
 2023  41   162    69  17.1  -6.0 36.87 10.75  0.58  0.66  30.9  1.12 0.156  1.28   935    15   181   738   419   319     0  0.00     0     0    69     0 165.5 3.164   9.4     0     0   557   268  0.92  0.77  38.3  22.1  0.31  1.00  0.69  0.76  0.00  0.00  0.00   2.0  0.00  0.00  0.00  0.00
 2023  42   163    70  14.0  -6.0 37.54 10.87  0.59  1.95  33.2  1.17 0.164  1.33   965    15   185   765   437   329     0  0.00     0     0    66     0 165.5 3.291   8.6     0     0   555   267  0.93  0.83  38.5  66.4  0.91  0.18  0.09  0.30  0.00  0.00  0.00   2.0  0.00  0.00  0.00  0.00
 2023  43   164    71  15.7  -6.0 38.29 11.01  0.59  0.64  31.1  1.18 0.167  1.35   988    15   189   783   444   340     0  0.00     0     0    68     0 171.4 3.436   8.7     0     0   553   266  0.94  0.77  38.8  22.3  0.30  1.00  0.70  0.77  0.00  0.00  0.00   2.0  0.00  0.00  0.00  0.00
 2023  44   165    72  13.9  -6.0 38.95 11.14  0.60  0.97  32.3  1.19 0.171  1.36  1010    15   193   802   450   352     0  0.00     0     0    72     0 178.4 3.567   9.0     0     0   551   264  0.95  0.79  38.9  34.7  0.45  1.00  0.55  0.65  0.00  0.00  0.00   2.0  0.00  0.00  0.00  0.00
 2023  45   166    73  13.7  -6.0 39.60 11.26  0.60  0.63  31.4  1.20 0.174  1.37  1031    15   197   819   455   364     0  0.00     0     0    76     0 185.5 3.699   9.2     0     0   549   263  0.96  0.78  39.1  23.0  0.29  1.00  0.71  0.77  0.00  0.00  0.00   2.0  0.00  0.00  0.00  0.00
 2023  46   167    74  14.2  -6.0 40.29 11.39  0.60  0.60  30.9  1.20 0.178  1.38  1052    15   201   836   460   376     0  0.00     0     0    79     0 192.7 3.838   9.4     0     0   547   261  0.97  0.78  40.4  22.9  0.28  1.00  0.72  0.78  0.00  0.00  0.00   2.0  0.00  0.00  0.00  0.00
 2023  47   168    75  14.1  -6.0 41.00 11.39  0.59  0.68  38.9  1.17 0.179  1.35  1087    15   206   866   448   410     0  0.00     0     0    96     8 192.7 3.980  11.2     0     0   545   261  0.98  0.78  39.6  20.1  0.26  1.00  0.74  0.80  0.00  0.00  0.00   2.0  0.00  0.00  0.00  0.00
 2023  48   169    76  12.8  -6.0 41.64 11.39  0.58  0.94  37.9  1.14 0.181  1.32  1122    15   211   896   437   442     0  0.00     0     0   113    16 192.7 4.112  12.8     0     0   544   260  0.99  0.79  39.7  29.1  0.35  1.00  0.65  0.73  0.00  0.00  0.00   2.0  0.00  0.00  0.00  0.00
 2023  49   170    77  17.4  -6.0 42.51 11.39  0.57  0.98  34.8  1.10 0.182  1.28  1154    15   215   924   425   474     0  0.00     0     0   130    25 192.7 4.295  14.4     0     0   541   259  1.00  0.80  45.9  35.6  0.37  1.00  0.63  0.71  0.00  0.00  0.00   2.0  0.00  0.00  0.00  0.00
 2023  50   171    78  18.8  -6.0 43.45 11.39  0.57  2.64  80.5  1.09 0.192  1.28  1230    15   221   993   422   543     0  0.00     0     0   154    28 192.7 4.497  15.9     0     0   539   258  1.01  0.86  44.5  38.3  1.05  0.00  0.00  0.19  0.00  0.00  0.00   2.0  0.00  0.00  0.00  0.00
 2023  51   172    79  18.3  -6.0 44.36 11.39  0.55  1.27  47.5  1.06 0.195  1.25  1273    15   226  1032   411   585     0  0.00     0     0   174    36 192.7 4.700  17.4     0     0   537   257  1.02  0.82  43.4  30.9  0.48  1.00  0.52  0.63  0.00  0.00  0.00   2.0  0.00  0.00  0.00  0.00
 2023  52   173    80  16.3  -6.0 45.18 11.39  0.54  1.33  44.8  1.03 0.198  1.22  1315    15   231  1069   400   625     0  0.00     0     0   193    44 192.7 4.884  18.8     0     0   536   256  1.03  0.82  43.4  36.2  0.50  1.00  0.50  0.61  0.00  0.00  0.00   2.0  0.00  0.00  0.00  0.00
 2023  53   174    81  15.3  -6.0 45.94 11.39  0.53  0.80  43.5  1.00 0.201  1.20  1355    15   236  1104   389   663     0  0.00     0     0   211    52 192.7 5.061  20.0     0     0   535   256  1.04  0.81  43.6  23.0  0.30  1.00  0.70  0.77  0.00  0.00  0.00   2.0  0.00  0.00  0.00  0.00
 2023  54   175    82  16.1  -6.0 46.75 11.39  0.52  0.76  41.1  0.97 0.203  1.17  1393    15   240  1137   379   699     0  0.00     0     0   228    59 192.7 5.251  21.2     0     0   533   255  1.06  0.81  43.8  22.8  0.29  1.00  0.71  0.78  0.00  0.00  0.00   2.0  0.00  0.00  0.00  0.00
 2023  55   176    83  13.1  -6.0 47.41 11.39  0.51  1.26  42.6  0.94 0.206  1.14  1432    15   244  1173   369   738     0  0.00     0     0   246    66 192.7 5.409  22.2     0     0   532   254  1.06  0.83  43.9  38.7  0.48  1.00  0.52  0.63  0.00  0.00  0.00   2.0  0.00  0.00  0.00  0.00
 2023  56   177    84  15.6  -6.0 48.19 11.39  0.50  1.20  39.4  0.91 0.208  1.12  1469    15   248  1205   358   774     0  0.00     0     0   263    73 192.7 5.601  23.2     0     0   531   254  1.07  0.83  44.1  38.2  0.46  1.00  0.54  0.65  0.00  0.00  0.00   2.0  0.00  0.00  0.00  0.00
 2023  57   178    85  17.0  -6.0 49.04 11.39  0.49  0.72  37.6  0.88 0.210  1.09  1504    15   252  1236   348   793     0  0.00    14    14   279    81 192.7 5.811  24.2     0     0   530   253  1.09  0.82  44.4  23.6  0.27  1.00  0.73  0.79  0.00  0.00  0.00   2.0  0.00  0.00  0.00  0.00
 2023  58   179    86  16.0  -6.0 49.84 11.39  0.48  0.73  37.3  0.85 0.213  1.07  1538    15   256  1267   338   806     0  0.00    35    28   296    88 192.7 6.013  25.1     0     0   529   252  1.10  0.82  44.7  24.6  0.28  1.00  0.72  0.79  0.00  0.00  0.00   2.0  0.00  0.00  0.00  0.00
 2023  59   180    87  16.1  -6.0 52.98 11.39  0.47  0.83  36.4  0.83 0.215  1.04  1572    15   259  1297   328   818     0  0.00    57    42   312    95 192.7 6.218  25.9     0     0   528   251  1.11  0.83  44.9  28.4  0.31  1.00  0.69  0.76  0.00  0.00  0.00   2.0  0.00  0.00  0.00  0.00
 2023  60   181    88  12.6  -6.0 55.90 11.39  0.47  2.64  39.0  0.82 0.220  1.04  1609    15   261  1332   328   830     0  0.00    80    58   323    96 192.7 6.382  26.1     0     0   527   251  1.11  0.91  45.1  93.8  1.01  0.00  0.00  0.22  0.00  0.00  0.00   2.0  0.00  0.00  0.00  0.00
 2023  61   182    89  14.6  -6.0 59.29 11.39  0.46  0.73  36.6  0.80 0.224  1.02  1643    15   264  1363   320   840     0  0.00   103    72   338   101 192.7 6.574  26.8     0     0   526   250  1.12  0.85  45.3  26.4  0.28  1.00  0.72  0.79  0.00  0.00  0.00   2.0  0.00  0.00  0.00  0.00
 2023  62   183    90  14.9  -6.0 69.08 11.39  0.45  0.70  35.3  0.78 0.227  1.01  1676    15   267  1394   312   851     0  0.00   124    86   352   106 192.7 6.771  27.4     0     0   525   250  1.13  0.85  45.5  26.0  0.26  1.00  0.74  0.80  0.00  0.00  0.00   2.0  0.00  0.00  0.00  0.00
 2023  63   184    91  14.5  -6.0 70.65 11.39  0.44  0.69  34.5  0.76 0.231  0.99  1709    15   270  1423   305   861     0  0.00   146    99   367   112 192.7 6.964  27.9     0     0   525   249  1.14  0.86  45.8  26.4  0.26  1.00  0.74  0.80  0.00  0.00  0.00   2.0  0.00  0.00  0.00  0.00
 2023  64   185    92  15.5  -6.0 71.41 11.39  0.43  0.67  33.0  0.74 0.235  0.97  1740    15   272  1452   297   869     2  0.00   167   115   378   117 192.7 7.173  28.4  3581 .0001   524   248  1.15  0.87  46.0  26.0  0.25  1.00  0.75  0.81  0.00  0.00  0.00   2.0  0.00  0.00  0.00  0.00
 2023  65   186    93  16.9  -6.0 72.24 11.39  0.42  0.68  31.7  0.72 0.238  0.96  1770    15   274  1480   290   874     8  0.01   186   133   386   122 192.7 7.403  28.6  3581 .0002   523   248  1.16  0.88  46.4  27.1  0.26  1.00  0.74  0.80  0.00  0.00  0.00   2.0  0.00  0.00  0.00  0.00
 2023  66   187    94  16.9  -6.0 73.07 11.39  0.41  0.87  31.1  0.70 0.242  0.94  1800    15   276  1508   283   877    17  0.01   205   154   391   127 192.7 7.634  28.6  3581 .0005   522   247  1.18  0.90  46.7  35.9  0.33  1.00  0.67  0.75  0.00  0.00  0.00   2.0  0.00  0.00  0.00  0.00
 2023  67   188    95  18.4  -6.0 73.97 11.39  0.40  0.72  29.6  0.68 0.240  0.92  1828    15   277  1535   275   882    30  0.02   216   168   410   132 192.7 7.888  29.8  3581 .0008   521   246  1.19  0.91  47.2  30.7  0.27  1.00  0.73  0.79  0.00  0.00  0.00   2.0  0.00  0.00  0.00  0.00
 2023  68   189    96  19.7  -6.0 74.94 11.39  0.39  0.65  28.2  0.66 0.238  0.90  1855    15   278  1561   268   889    48  0.03   219   186   423   137 192.7 8.161  30.7  3581 .0013   520   245  1.20  0.92  47.7  28.3  0.24  1.00  0.76  0.81  0.00  0.00  0.00   2.0  0.00  0.00  0.00  0.00
 2023  69   190    97  19.4  -6.0 75.89 11.39  0.39  0.62  27.8  0.64 0.237  0.88  1882    15   279  1587   261   893    70  0.04   221   208   431   142 192.7 8.431  31.4  3581 .0020   520   245  1.20  0.93  47.3  27.8  0.24  1.00  0.76  0.82  0.00  0.00  0.00   2.0  0.00  0.00  0.00  0.00
 2023  70   191    98  19.6  -6.0 76.86 11.39  0.38  0.63  27.0  0.62 0.235  0.85  1908    15   280  1613   254   892    97  0.06   222   235   435   147 192.7 8.705  31.8  3581 .0027   519   244  1.20  0.95  46.9  28.4  0.24  1.00  0.76  0.82  0.00  0.00  0.00   2.0  0.00  0.00  0.00  0.00
 2023  71   192    99  22.8  -6.0 77.97 11.39  0.37  0.60  24.9  0.60 0.233  0.83  1932    15   280  1637   247   884   133  0.08   221   271   428   152 192.7 9.024  31.6  3581 .0037   517   243  1.20  0.96  46.5  27.4  0.23  1.00  0.77  0.83  0.00  0.00  0.00   2.0  0.00  0.18  0.00  0.00
 2023  72   193   100  22.0  -6.0 79.05 11.39  0.36  0.60  24.7  0.58 0.231  0.81  1956    15   280  1661   240   872   174  0.10   218   312   416   157 192.7 9.332  31.3  3581 .0049   516   242  1.20  0.97  46.1  27.8  0.23  1.00  0.77  0.83  0.00  0.00  0.00   2.0  0.00  0.13  0.00  0.00
 2023  73   194   101  19.8  -6.0 80.01 11.39  0.35  0.60  25.0  0.56 0.230  0.79  1981    15   280  1685   233   859   216  0.13   216   354   403   162 192.7 9.609  30.8  3581 .0060   515   241  1.20  0.98  45.7  28.5  0.23  1.00  0.77  0.83  0.00  0.00  0.00   2.0  0.00  0.00  0.00  0.00
 2023  74   195   102  19.5  -6.0 80.35 11.39  0.34  0.69  24.5  0.55 0.228  0.78  2005    15   280  1709   228   843   262  0.15   212   400   385   165 192.7 9.881  30.0  3581 .0073   514   240  1.20  0.98  45.4  33.3  0.26  1.00  0.74  0.80  0.00  0.00  0.00   2.0  0.00  0.00  0.00  0.00
 2023  75   196   103  20.5  -6.0 80.70 11.39  0.34  0.74  23.6  0.54 0.227  0.76  2028    15   280  1732   223   824   310  0.18   207   448   363   168 192.7 10.17  28.9  3581 .0087   513   240  1.20  0.98  45.0  36.3  0.28  1.00  0.72  0.79  0.00  0.00  0.00   2.0  0.00  0.03  0.00  0.00
 2023  76   197   104  20.0  -6.0 81.05 11.39  0.33  1.76  23.7  0.53 0.225  0.76  2051    15   280  1755   223   805   357  0.20   201   495   339   169 192.7 10.45  27.6  3581 .0100   512   239  1.20  0.98  55.9  99.9  0.67  0.67  0.33  0.49  0.00  0.00  0.00   2.0  0.00  0.00  0.00  0.00
 2023  77   198   105  19.0  -6.0 81.38 11.39  0.33  2.65  96.4  0.53 0.224  0.76  2146    15   281  1850   223   843   402  0.22   212   540   389   169 192.7 10.72  30.4  3581 .0112   511   238  1.20  0.98  81.6  58.1  2.01  0.00  0.00  0.00  0.00  0.00  0.00   2.0  0.00  0.00  0.00  0.00
 2023  78   199   106  19.0  -6.0 81.72 11.39  0.33  2.65 101.0  0.53 0.223  0.75  2246    15   282  1949   223   884   447  0.23   224   585   444   170 192.7 10.98  33.3  3581 .0125   510   237  1.20  0.98  77.8  53.0  4.80  0.00  0.00  0.00  0.00  0.00  0.00   2.0  0.00  0.00  0.00  0.00
 2023  79   200   107  19.0  -6.0 82.05 11.39  0.33  2.65  99.8  0.53 0.221  0.75  2345    15   283  2047   223   925   492  0.24   236   630   497   170 192.7 11.25  35.9  3581 .0137   510   237  1.20  0.98  76.2  53.5  5.00  0.00  0.00  0.00  0.00  0.00  0.00   2.0  0.00  0.00  0.00  0.00
 2023  80   201   108  20.1  -6.0 82.40 11.39  0.33  2.65  98.6  0.53 0.220  0.75  2443    15   284  2143   223   963   540  0.25   247   678   546   171 192.7 11.54  38.1  3581 .0151   510   236  1.20  0.98  74.6  52.9  4.95  0.00  0.00  0.00  0.00  0.00  0.00   2.0  0.00  0.01  0.00  0.00
 2023  81   202   109  20.2  -6.0 82.75 11.39  0.33  2.65  98.3  0.52 0.219  0.74  2540    15   285  2240   222  1000   588  0.26   258   726   596   171 192.7 11.82  40.2  3581 .0164   510   235  1.20  0.98  73.1  50.6  4.01  0.00  0.00  0.00  0.00  0.00  0.00   2.0  0.00  0.02  0.00  0.00
 2023  82   203   110  19.6  -6.0 83.09 11.39  0.33  2.65 101.9  0.52 0.217  0.74  2641    15   286  2340   222  1042   634  0.27   270   772   650   172 192.7 12.10  42.4  3581 .0177   510   235  1.20  0.98  71.5  48.8  3.32  0.00  0.00  0.00  0.00  0.00  0.00   2.0  0.00  0.00  0.00  0.00
 2023  83   204   111  17.6  -6.0 83.40 11.39  0.33  2.65 108.6  0.52 0.216  0.74  2748    15   287  2446   222  1092   676  0.28   284   813   715   172 192.7 12.35  44.7  3581 .0189   510   234  1.20  0.98  69.9  46.5  2.80  0.00  0.00  0.00  0.00  0.00  0.00   2.0  0.00  0.00  0.00  0.00
 2023  84   205   112  17.1  -6.0 83.69 11.39  0.33  2.65 104.0  0.52 0.215  0.73  2851    15   288  2548   222  1139   716  0.28   298   854   777   173 192.7 12.60  46.8  3581 .0200   510   233  1.20  0.98  68.4  48.0  2.62  0.00  0.00  0.00  0.00  0.00  0.00   2.0  0.00  0.00  0.00  0.00
 2023  85   206   113  17.5  -6.0 84.00 11.39  0.33  2.65 104.6  0.52 0.214  0.73  2954    15   289  2650   222  1186   757  0.29   312   895   838   173 192.7 12.85  48.7  3581 .0211   510   233  1.20  0.98  66.8  45.9  2.17  0.00  0.00  0.00  0.00  0.00  0.00   2.0  0.00  0.00  0.00  0.00
 2023  86   207   114  17.5  -6.0 84.30 11.39  0.32  2.65  81.0  0.51 0.213  0.73  3035    15   289  2730   222  1215   799  0.29   320   937   877   174 192.7 13.10  49.9  3581 .0223   510   232  1.20  0.98  65.6  58.2  2.38  0.00  0.00  0.00  0.00  0.00  0.00   2.0  0.00  0.00  0.00  0.00
 2023  87   208   115  18.8  -6.0 84.63 11.39  0.32  2.65  97.1  0.51 0.212  0.72  3131    15   290  2825   221  1255   843  0.30   332   981   928   174 192.7 13.38  51.3  3581 .0235   510   232  1.20  0.98  64.2  46.2  1.72  0.00  0.00  0.00  0.00  0.00  0.00   2.0  0.00  0.00  0.00  0.00
 2023  88   209   116  18.0  -6.0 84.94 11.39  0.32  2.65 100.3  0.51 0.211  0.72  3230    15   291  2923   221  1298   886  0.30   344  1023   984   175 192.7 13.64  52.8  3581 .0247   510   231  1.20  0.98  62.7  44.2  1.46  0.00  0.00  0.00  0.00  0.00  0.00   2.0  0.00  0.00  0.00  0.00
 2023  89   210   117  19.3  -6.0 85.28 11.39  0.32  2.65  98.7  0.51 0.210  0.72  3327    15   292  3020   221  1337   931  0.31   356  1069  1036   175 192.7 13.92  54.1  3581 .0260   510   230  1.20  0.98  61.2  42.9  1.26  0.00  0.00  0.03  0.00  0.00  0.00   2.0  0.00  0.00  0.00  0.00
 2023  90   211   118  18.7  -6.0 85.60 11.39  0.32  2.65 108.6  0.51 0.209  0.72  3435    15   293  3126   221  1385   975  0.31   370  1113  1099   176 192.7 14.19  55.6  3581 .0272   510   230  1.20  0.98  59.6  38.7  1.02  0.00  0.00  0.21  0.00  0.00  0.00   2.0  0.00  0.00  0.00  0.00
 2023  91   212   119  19.4  -6.0 85.94 11.39  0.31  2.37  94.4  0.48 0.208  0.69  3528    15   294  3219   210  1423  1021  0.32   382  1159  1152   182 192.7 14.48  57.1  3581 .0285   510   229  1.20  0.98  58.2  38.1  0.90  0.21  0.10  0.31  0.00  0.00  0.00   2.0  0.00  0.00  0.00  0.00
 2023  92   213   120  20.8  -6.0 86.30 11.39  0.29  2.19  81.5  0.46 0.207  0.66  3609    15   295  3299   200  1449  1070  0.32   391  1208  1189   189 192.7 14.78  58.3  3581 .0299   510   229  1.20  0.98  56.9  38.8  0.83  0.35  0.17  0.36  0.00  0.00  0.00   2.0  0.00  0.06  0.00  0.00
 2023  93   214   121  18.6  -6.0 86.63 11.39  0.28  2.24  76.3  0.43 0.206  0.63  3684    15   295  3373   188  1475  1114  0.33   400  1252  1227   196 192.7 15.06  59.5  3581 .0311   510   228  1.20  0.98  55.8  43.4  0.85  0.30  0.15  0.35  0.00  0.00  0.00   2.0  0.00  0.00  0.00  0.00
 2023  94   215   122  17.1  -6.0 86.92 11.39  0.27  2.06  72.9  0.40 0.205  0.61  3756    15   296  3445   178  1501  1155  0.34   409  1293  1265   202 192.7 15.31  60.6  3581 .0322   510   227  1.20  0.98  54.8  42.8  0.78  0.44  0.22  0.40  0.00  0.00  0.00   2.0  0.00  0.00  0.00  0.00
 2023  95   216   123  15.9  -6.0 87.20 11.39  0.25  2.07  68.8  0.38 0.204  0.58  3824    15   297  3512   168  1526  1192  0.34   418  1330  1301   208 192.7 15.54  61.6  3581 .0333   510   227  1.20  0.98  53.8  46.1  0.78  0.43  0.22  0.40  0.00  0.00  0.00   2.0  0.00  0.00  0.00  0.00
 2023  96   217   124  15.9  -6.0 87.48 11.39  0.24  1.90  62.9  0.36 0.203  0.56  3886    15   297  3574   159  1547  1229  0.34   425  1367  1331   214 192.7 15.78  62.4  3581 .0343   510   226  1.20  0.98  52.9  44.8  0.72  0.56  0.28  0.45  0.00  0.00  0.00   2.0  0.00  0.00  0.00  0.00
 2023  97   218   125  17.3  -6.0 87.78 11.39  0.23  1.81  57.1  0.34 0.202  0.54  3943    15   298  3630   150  1560  1270  0.35   431  1408  1351   219 192.7 16.04  63.1  3581 .0355   510   226  1.20  0.98  52.1  45.1  0.69  0.63  0.31  0.47  0.00  0.00  0.00   2.0  0.00  0.00  0.00  0.00
 2023  98   219   126  19.2  -6.0 88.11 11.39  0.21  1.70  51.4  0.32 0.201  0.52  3994    15   298  3680   140  1566  1315  0.36   434  1453  1362   225 192.7 16.32  63.7  3581 .0367   510   225  1.20  0.98  51.3  44.4  0.64  0.71  0.36  0.50  0.00  0.00  0.00   2.0  0.00  0.00  0.00  0.00
 2023  99   220   127  20.0  -6.0 88.46 11.39  0.20  1.67  47.7  0.29 0.199  0.49  4041    15   298  3727   129  1563  1363  0.37   437  1500  1369   235 192.7 16.62  64.3  3581 .0380   510   225  1.20  0.98  50.6  45.5  0.63  0.74  0.37  0.51  0.00  0.00  0.00   2.0  0.00  0.00  0.00  0.00
 2023 100   221   128  19.5  -6.0 88.80 11.39  0.18  1.85  45.5  0.26 0.198  0.46  4085    15   298  3772   117  1560  1409  0.37   441  1547  1374   245 192.7 16.91  64.9  3581 .0393   510   224  1.20  0.98  49.9  52.5  0.70  0.60  0.30  0.46  0.00  0.00  0.00   2.0  0.00  0.00  0.00  0.00
 2023 101   222   129  21.5  -6.0 89.17 11.39  0.17  1.78  41.7  0.24 0.196  0.43  4126    15   299  3813   106  1549  1460  0.38   443  1597  1371   255 192.7 17.23  65.3  3581 .0408   510   224  1.20  0.98  49.2  52.7  0.67  0.65  0.33  0.48  0.00  0.00  0.00   2.0  0.00  0.10  0.00  0.00
 2023 102   223   130  20.7  -6.0 89.53 11.39  0.15  1.93  40.6  0.21 0.194  0.40  4166    15   299  3852    93  1540  1508  0.39   445  1646  1369   266 192.7 17.54  65.9  3581 .0421   510   223  1.20  0.98  48.6  59.0  0.73  0.54  0.27  0.44  0.00  0.00  0.00   2.0  0.00  0.04  0.00  0.00
 2023 103   224   131  20.1  -6.0 89.88 11.39  0.13  2.52  39.9  0.18 0.192  0.37  4206    15   299  3891    81  1531  1556  0.40   447  1694  1368   277 192.7 17.84  66.4  3581 .0434   510   222  1.20  0.98  48.0  80.1  0.95  0.09  0.05  0.27  0.00  0.00  0.00   2.0  0.00  0.01  0.00  0.00
 2023 104   225   132  20.2  -6.0 90.67 11.39  0.11  2.35  38.0  0.15 0.191  0.34  4243    15   299  3929    69  1544  1572  0.40   456  1710  1396   287 192.7 18.14  67.4  3581 .0439   510   222  1.20  0.98  47.4  77.1  0.89  0.22  0.11  0.32  0.00  0.00  0.00   2.0  0.00  0.01  0.00  0.00
