*SIMULATION OVERVIEW FILE
  

*DSSAT Cropping System Model Ver. 4.8.2.000 -release  AUG 22, 2025 13:14:18

*RUN   1        : WW23_G-1                  CSCER048 CIOB2301    1
 MODEL          : CSCER048 - Wheat
 EXPERIMENT     : CIOB2301 WH ROOTS ANATOMY
 DATA PATH      : C:\DSSAT48\Wheat\
 TREATMENT  1   : WW23_G-1                  CSCER048


 CROP           : Wheat            CULTIVAR : ENTRY 1          ECOTYPE :CI0701
 STARTING DATE  : SEP  1 2022
 PLANTING DATE  : NOV 23 2022      PLANTS/m2 :   137.0    ROW SPACING :  20.cm
 WEATHER        : CIOB   2022
 SOIL           : CCENEB2301     TEXTURE : C     -   CIMMYT CENEB 710
 SOIL INIT COND : DEPTH:120cm EXTR. H2O: 82.8mm  NO3:484.0kg/ha  NH4:341.8kg/ha
 WATER BALANCE  : IRRIGATE ON REPORTED DATE(S)
 IRRIGATION     :      525 mm IN     9 APPLICATIONS
 NITROGEN BAL.  : SOIL-N & N-UPTAKE SIMULATION; NO N-FIXATION
 N-FERTILIZER   :      323 kg/ha IN     3 APPLICATIONS
 RESIDUE/MANURE : INITIAL :     0 kg/ha ;    2222 kg/ha IN     1 APPLICATIONS
 ENVIRONM. OPT. : DAYL=    0.00  SRAD=    0.00  TMAX=    0.00  TMIN=    0.00
                  RAIN=    0.00  CO2 =    0.00  DEW =    0.00  WIND=    0.00
 SIMULATION OPT : WATER   :Y  NITROGEN:Y  N-FIX:N  PHOSPH :N  PESTS  :N
                  PHOTO   :C  ET      :R  INFIL:S  HYDROL :R  SOM    :G
                  CO2 418ppm  NSWIT   :1  EVAP :R  SOIL   :2  STEMP  :D
 MANAGEMENT OPT : PLANTING:R  IRRIG   :R  FERT :R  RESIDUE:R  HARVEST:M
                  WEATHER :M  TILLAGE :Y

*SUMMARY OF SOIL AND GENETIC INPUT PARAMETERS

   SOIL LOWER UPPER   SAT  EXTR  INIT   ROOT   BULK     pH    NO3    NH4    ORG
  DEPTH LIMIT LIMIT    SW    SW    SW   DIST   DENS                          C
   cm   cm3/cm3    cm3/cm3    cm3/cm3         g/cm3         ugN/g  ugN/g     %
-------------------------------------------------------------------------------
  0-  5 0.143 0.204 0.268 0.061 0.172   1.00   1.35   8.50  29.00  29.00   1.08
  5- 15 0.143 0.204 0.268 0.061 0.172   1.00   1.35   8.50  29.00  29.00   1.08
 15- 30 0.143 0.204 0.268 0.061 0.172   1.00   1.35   8.50  29.00  29.00   1.08
 30- 45 0.166 0.234 0.274 0.068 0.225   0.41   1.58   8.50  27.00  16.00   0.80
 45- 60 0.166 0.234 0.274 0.068 0.225   0.41   1.58   8.50  27.00  16.00   0.80
 60- 90 0.155 0.227 0.276 0.072 0.207   0.22   1.50   7.90  53.00  33.00   0.87
 90-120 0.188 0.263 0.308 0.075 0.263   0.12   1.38   8.00   0.01   0.01   0.40

TOT-120  19.6  27.8  33.8   8.3  26.0  <--cm   -  kg/ha-->  484.0  341.8 137370
SOIL ALBEDO    : 0.13      EVAPORATION LIMIT : 6.00         MIN. FACTOR  : 1.00
RUNOFF CURVE # :61.00      DRAINAGE RATE     : 0.60         FERT. FACTOR : 1.00

 Wheat            CULTIVAR: 555175-ENTRY 1            ECOTYPE: CI0701
   P1V   P1D    P5    G1    G2    G3 PHINT
   2.0  42.4 569.7  23.1  48.1  6.18 101.9


*SIMULATED CROP AND SOIL STATUS AT MAIN DEVELOPMENT STAGES
  
 RUN NO.      1   ROOTS ANATOMY                                               

 ...... DATE ......  GROWTH STAGE BIOMASS   LEAF       CROP N      STRESS
 YEARDOY DOM MON DAP ............. kg/ha AREA NUMBER  kg/ha   %   H2O    N
 2022327  23 Nov   0 7 Sowing         0  0.00   0.0     0   0.0  0.00  0.00
 2022328  24 Nov   1 8 Germinate      0  0.00   0.0     0   0.0  0.00  0.00
 2022330  26 Nov   3 9 Emergence      0  0.00   0.0     0   0.0  0.00  0.00
 2023025  25 Jan  63 1 Term Spklt  1702  2.86  10.9    79   4.7  0.29  0.11
 2023043  12 Feb  81 2 End Veg     3794  5.35  13.6   125   3.3  0.07  0.00
 2023056  25 Feb  94 3 End Ear Gr  5951  4.51  13.6   122   2.0  0.01  0.00
 2023071  12 Mar 109 4 Beg Gr Fil  9150  3.55  13.6   120   1.3  0.11  0.00
 2023101  11 Apr 139 5 End Gr Fil 16326  0.94  13.6   193   1.2  0.08  0.00
 2023101  11 Apr 139 6 Harvest    16326  0.94  13.6   193   1.2  0.51  0.00
  
 BIOMASS = Above-ground dry wt (kg/ha)
 LEAF AREA  = Leaf area index (m2/m2)
 LEAF NUMBER  = Leaf number produced on main axis
 CROP N  = Above-ground N (kg/ha)
 CROP N% = Above-ground N conc (%)
 H2O STRESS = Photosynthesis stress,average (0-1,0=none)
 N STRESS = Photosynthesis stress,average (0-1,0=none)
  

*MAIN GROWTH AND DEVELOPMENT VARIABLES

@     VARIABLE                             SIMULATED     MEASURED
      --------                             ---------     --------
      Emergence (DAP)                            3            7
      Anthesis (DAP)                            97           97
      Maturity (DAP)                           139          140
      Product wt (kg dm/ha;no loss)           7271         6797
      Product unit weight (g dm)             0.048        0.047
      Product number (no/m2)                 15120        14451
      Product number (no/group)               31.7        -99.0
      Product harvest index (ratio)           0.45         0.43
      Maximum leaf area index                  5.4          5.7
      Final leaf number (one axis)            13.6        -99.0
      Final shoot number (#/m2)                476          -99
      Canopy (tops) wt (kg dm/ha)            16326        15757
      Vegetative wt (kg dm/ha)                9055         8960
      Root wt (kg dm/ha)                       932          -99
      Assimilate wt (kg dm/ha)               18180          -99
      Senesced wt (kg dm/ha)                   304          -99
      Reserves wt (kg dm/ha)                  3936          -99
      N uptake (kg/ha)                       211.8        -99.0
      N senesced (kg/ha)                       4.2        -99.0
      Above-ground N (kg/ha)                 192.7        -99.0
      Root N (kg/ha)                          15.7        -99.0
      Vegetative N (kg/ha)                    38.6        -99.0
      Product N (kg/ha)                      154.1        139.5
      Product N harvest index (ratio)         0.80       -99.00
      Product N (%)                            2.1          2.1
      Vegetative N (%)                         0.4        -99.0
      Leaf+stem wt,anthesis (kg dm/ha)        6653          -99
      Leaf+stem N,anthesis (kg/ha)           121.0        -99.0
      Leaf N,anthesis (%)                      3.0        -99.0

  Seed N must be added to N uptake to obtain a         
  balance with N in above-ground plus root material    

  Measured data are obtained from the A file,either    
  directly or by calculation from other other variables
  using the expressions given below:                   
                                                       
  Product wt       Harvest wt (HWAH) /                 
                               (Harvest%/100) (HPC)    
  Canopy wt        Grain wt (HWAM)+Vegetative wt (VWAm)
  Vegetative wt    Canopy wt (CWAM) - grain wt (HWAM)  
    = leaf+stem+retained dead material                 
  Product unit wt  Grain yield (HWAM)/Grain # (G#AM)   
  Product #/area   Product#/tiller (H#SM) *            
                                   tiller number (T#AM)
  Product #/group  Product#/area (H#AM) /              
                                tiller number (T#AM)   
  Harvest index    Product wt (HWAM)/Canopy wt.(CWAM)  
                                                       
  The same procedure is followed for nitrogen aspects  


*ENVIRONMENTAL AND STRESS FACTORS

 |-----Development Phase------|-------------Environment--------------|----------------Stress-----------------|
                              |--------Average-------|---Cumulative--|         (0=Min, 1=Max Stress)         |
                         Time  Temp  Temp Solar Photop         Evapo |----Water---|--Nitrogen--|--Phosphorus-|
                         Span   Max   Min   Rad  [day]   Rain  Trans  Photo         Photo         Photo
                         days    °C    °C MJ/m2     hr     mm     mm  synth Growth ' synth Growth  synth Growth
--------------------------------------------------------------------------------------------------------------
 Germinate  - Term Spklt   60  26.3   7.2  14.3  11.35   10.0   88.2  0.285  0.384  0.114  0.114 -99.00 -99.00
 Term Spklt - End Veg      18  25.7   5.6  15.7  11.73    0.1   52.4  0.067  0.122  0.000  0.000 -99.00 -99.00
 End Veg    - End Ear Gr   13  22.7   8.0  14.8  12.06   12.1   36.9  0.005  0.040  0.000  0.000 -99.00 -99.00
 End Ear Gr - Beg Gr Fil   15  27.3   6.7  20.1  12.41    0.1   55.0  0.113  0.166  0.000  0.000 -99.00 -99.00
 Beg Gr Fil - End Gr Fil   30  29.1   8.8  23.1  13.02   65.8  125.1  0.075  0.110  0.000  0.000 -99.00 -99.00
  
 Germinate  - End Gr Fil  136  26.6   7.3  17.1  11.95   88.1  357.5  0.164  0.232  0.050  0.050 -99.00 -99.00
--------------------------------------------------------------------------------------------------------------


*RESOURCE PRODUCTIVITY

 Growing season length: 136 days 

 Precipitation during growth season         88.1 mm[rain]
   Dry Matter Productivity                 18.53 kg[DM]/m3[rain]          =  185.3 kg[DM]/ha per mm[rain]
   Yield Productivity                       8.25 kg[grain yield]/m3[rain] =   82.5 kg[yield]/ha per mm[rain]

 Evapotranspiration during growth season   357.5 mm[ET]
   Dry Matter Productivity                  4.57 kg[DM]/m3[ET]            =   45.7 kg[DM]/ha per mm[ET]
   Yield Productivity                       2.03 kg[grain yield]/m3[ET]   =   20.3 kg[yield]/ha per mm[ET]

 Transpiration during growth season        284.5 mm[EP]
   Dry Matter Productivity                  5.74 kg[DM]/m3[EP]            =   57.4 kg[DM]/ha per mm[EP]
   Yield Productivity                       2.56 kg[grain yield]/m3[EP]   =   25.6 kg[yield]/ha per mm[EP]

 Irrigation during growing season          525.1 mm[irrig]
   Dry Matter Productivity                  3.11 kg[DM]/m3[irrig]         =   31.1 kg[DM]/ha per mm[irrig]
   Yield Productivity                       1.38 kg[grain yield]/m3[irrig]=   13.8 kg[yield]/ha per mm[irrig]

 N applied during growing season           323.0 kg[N applied]/ha
   Dry Matter Productivity                  50.5 kg[DM]/kg[N applied]
   Yield Productivity                       22.5 kg[yield]/kg[N applied]

 N uptake during growing season            211.8 kg[N uptake]/ha
   Dry Matter Productivity                  77.1 kg[DM]/kg[N uptake]
   Yield Productivity                       34.3 kg[yield]/kg[N uptake]

--------------------------------------------------------------------------------------------------------------

          WHEAT YIELD :     7271 kg/ha    [Dry weight] 

**************************************************************************************************************
  

*DSSAT Cropping System Model Ver. 4.8.2.000 -release  AUG 22, 2025 13:14:18

*RUN   2        : WW23_G-2                  CSCER048 CIOB2301    2
 MODEL          : CSCER048 - Wheat
 EXPERIMENT     : CIOB2301 WH ROOTS ANATOMY
 DATA PATH      : C:\DSSAT48\Wheat\
 TREATMENT  2   : WW23_G-2                  CSCER048


 CROP           : Wheat            CULTIVAR : ENTRY 2          ECOTYPE :CI0702
 STARTING DATE  : SEP  1 2022
 PLANTING DATE  : NOV 23 2022      PLANTS/m2 :   137.0    ROW SPACING :  20.cm
 WEATHER        : CIOB   2022
 SOIL           : CCENEB2301     TEXTURE : C     -   CIMMYT CENEB 710
 SOIL INIT COND : DEPTH:120cm EXTR. H2O: 82.8mm  NO3:484.0kg/ha  NH4:341.8kg/ha
 WATER BALANCE  : IRRIGATE ON REPORTED DATE(S)
 IRRIGATION     :      525 mm IN     9 APPLICATIONS
 NITROGEN BAL.  : SOIL-N & N-UPTAKE SIMULATION; NO N-FIXATION
 N-FERTILIZER   :      323 kg/ha IN     3 APPLICATIONS
 RESIDUE/MANURE : INITIAL :     0 kg/ha ;    2222 kg/ha IN     1 APPLICATIONS
 ENVIRONM. OPT. : DAYL=    0.00  SRAD=    0.00  TMAX=    0.00  TMIN=    0.00
                  RAIN=    0.00  CO2 =    0.00  DEW =    0.00  WIND=    0.00
 SIMULATION OPT : WATER   :Y  NITROGEN:Y  N-FIX:N  PHOSPH :N  PESTS  :N
                  PHOTO   :C  ET      :R  INFIL:S  HYDROL :R  SOM    :G
                  CO2 418ppm  NSWIT   :1  EVAP :R  SOIL   :2  STEMP  :D
 MANAGEMENT OPT : PLANTING:R  IRRIG   :R  FERT :R  RESIDUE:R  HARVEST:M
                  WEATHER :M  TILLAGE :Y

*SUMMARY OF SOIL AND GENETIC INPUT PARAMETERS

   SOIL LOWER UPPER   SAT  EXTR  INIT   ROOT   BULK     pH    NO3    NH4    ORG
  DEPTH LIMIT LIMIT    SW    SW    SW   DIST   DENS                          C
   cm   cm3/cm3    cm3/cm3    cm3/cm3         g/cm3         ugN/g  ugN/g     %
-------------------------------------------------------------------------------
  0-  5 0.143 0.204 0.268 0.061 0.172   1.00   1.35   8.50  29.00  29.00   1.08
  5- 15 0.143 0.204 0.268 0.061 0.172   1.00   1.35   8.50  29.00  29.00   1.08
 15- 30 0.143 0.204 0.268 0.061 0.172   1.00   1.35   8.50  29.00  29.00   1.08
 30- 45 0.166 0.234 0.274 0.068 0.225   0.41   1.58   8.50  27.00  16.00   0.80
 45- 60 0.166 0.234 0.274 0.068 0.225   0.41   1.58   8.50  27.00  16.00   0.80
 60- 90 0.155 0.227 0.276 0.072 0.207   0.22   1.50   7.90  53.00  33.00   0.87
 90-120 0.188 0.263 0.308 0.075 0.263   0.12   1.38   8.00   0.01   0.01   0.40

TOT-120  19.6  27.8  33.8   8.3  26.0  <--cm   -  kg/ha-->  484.0  341.8 137370
SOIL ALBEDO    : 0.13      EVAPORATION LIMIT : 6.00         MIN. FACTOR  : 1.00
RUNOFF CURVE # :61.00      DRAINAGE RATE     : 0.60         FERT. FACTOR : 1.00

 Wheat            CULTIVAR: 457793-ENTRY 2            ECOTYPE: CI0702
   P1V   P1D    P5    G1    G2    G3 PHINT
   2.0  45.5 519.7  23.7  43.5  8.00  95.9


*SIMULATED CROP AND SOIL STATUS AT MAIN DEVELOPMENT STAGES
  
 RUN NO.      2   ROOTS ANATOMY                                               

 ...... DATE ......  GROWTH STAGE BIOMASS   LEAF       CROP N      STRESS
 YEARDOY DOM MON DAP ............. kg/ha AREA NUMBER  kg/ha   %   H2O    N
 2022327  23 Nov   0 7 Sowing         0  0.00   0.0     0   0.0  0.00  0.00
 2022328  24 Nov   1 8 Germinate      0  0.00   0.0     0   0.0  0.00  0.00
 2022330  26 Nov   3 9 Emergence      0  0.00   0.0     0   0.0  0.00  0.00
 2023025  25 Jan  63 1 Term Spklt  1950  3.20  11.5    91   4.7  0.14  0.08
 2023044  13 Feb  82 2 End Veg     4203  6.10  14.6   139   3.3  0.01  0.00
 2023057  26 Feb  95 3 End Ear Gr  6545  5.16  14.6   136   2.1  0.00  0.00
 2023072  13 Mar 110 4 Beg Gr Fil 10000  4.18  14.6   134   1.3  0.08  0.00
 2023099   9 Apr 137 5 End Gr Fil 16990  2.10  14.6   201   1.2  0.05  0.00
 2023099   9 Apr 137 6 Harvest    16990  2.10  14.6   201   1.2  0.52  0.00
  

*MAIN GROWTH AND DEVELOPMENT VARIABLES

@     VARIABLE                             SIMULATED     MEASURED
      --------                             ---------     --------
      Emergence (DAP)                            3            7
      Anthesis (DAP)                            97           96
      Maturity (DAP)                           137          139
      Product wt (kg dm/ha;no loss)           7108         6933
      Product unit weight (g dm)             0.044        0.042
      Product number (no/m2)                 16341        16392
      Product number (no/group)               22.0        -99.0
      Product harvest index (ratio)           0.42         0.41
      Maximum leaf area index                  6.1          6.1
      Final leaf number (one axis)            14.6        -99.0
      Final shoot number (#/m2)                742          -99
      Canopy (tops) wt (kg dm/ha)            16990        16796
      Vegetative wt (kg dm/ha)                9882         9863
      Root wt (kg dm/ha)                       984          -99
      Assimilate wt (kg dm/ha)               18959          -99
      Senesced wt (kg dm/ha)                   333          -99
      Reserves wt (kg dm/ha)                  4062          -99
      N uptake (kg/ha)                       221.5        -99.0
      N senesced (kg/ha)                       4.6        -99.0
      Above-ground N (kg/ha)                 201.2        -99.0
      Root N (kg/ha)                          16.6        -99.0
      Vegetative N (kg/ha)                    49.2        -99.0
      Product N (kg/ha)                      152.0        142.3
      Product N harvest index (ratio)         0.76       -99.00
      Product N (%)                            2.1          2.1
      Vegetative N (%)                         0.5        -99.0
      Leaf+stem wt,anthesis (kg dm/ha)        7016          -99
      Leaf+stem N,anthesis (kg/ha)           135.1        -99.0
      Leaf N,anthesis (%)                      3.1        -99.0

*ENVIRONMENTAL AND STRESS FACTORS

 |-----Development Phase------|-------------Environment--------------|----------------Stress-----------------|
                              |--------Average-------|---Cumulative--|         (0=Min, 1=Max Stress)         |
                         Time  Temp  Temp Solar Photop         Evapo |----Water---|--Nitrogen--|--Phosphorus-|
                         Span   Max   Min   Rad  [day]   Rain  Trans  Photo         Photo         Photo
                         days    °C    °C MJ/m2     hr     mm     mm  synth Growth ' synth Growth  synth Growth
--------------------------------------------------------------------------------------------------------------
 Germinate  - Term Spklt   60  26.3   7.2  14.3  11.35   10.0   94.4  0.143  0.235  0.081  0.081 -99.00 -99.00
 Term Spklt - End Veg      19  25.4   5.6  15.5  11.74    0.1   57.1  0.011  0.033  0.000  0.000 -99.00 -99.00
 End Veg    - End Ear Gr   13  23.1   8.1  15.5  12.08   12.1   39.1  0.000  0.000  0.000  0.000 -99.00 -99.00
 End Ear Gr - Beg Gr Fil   15  27.8   6.9  20.2  12.43    0.1   57.6  0.080  0.129  0.000  0.000 -99.00 -99.00
 Beg Gr Fil - End Gr Fil   27  28.7   8.7  23.0  13.01   65.8  118.2  0.051  0.076  0.000  0.000 -99.00 -99.00
  
 Germinate  - End Gr Fil  134  26.5   7.3  17.0  11.93   88.1  366.4  0.085  0.139  0.036  0.036 -99.00 -99.00
--------------------------------------------------------------------------------------------------------------


*RESOURCE PRODUCTIVITY

 Growing season length: 134 days 

 Precipitation during growth season         88.1 mm[rain]
   Dry Matter Productivity                 19.28 kg[DM]/m3[rain]          =  192.8 kg[DM]/ha per mm[rain]
   Yield Productivity                       8.07 kg[grain yield]/m3[rain] =   80.7 kg[yield]/ha per mm[rain]

 Evapotranspiration during growth season   366.4 mm[ET]
   Dry Matter Productivity                  4.64 kg[DM]/m3[ET]            =   46.4 kg[DM]/ha per mm[ET]
   Yield Productivity                       1.94 kg[grain yield]/m3[ET]   =   19.4 kg[yield]/ha per mm[ET]

 Transpiration during growth season        293.7 mm[EP]
   Dry Matter Productivity                  5.79 kg[DM]/m3[EP]            =   57.9 kg[DM]/ha per mm[EP]
   Yield Productivity                       2.42 kg[grain yield]/m3[EP]   =   24.2 kg[yield]/ha per mm[EP]

 Irrigation during growing season          525.1 mm[irrig]
   Dry Matter Productivity                  3.24 kg[DM]/m3[irrig]         =   32.4 kg[DM]/ha per mm[irrig]
   Yield Productivity                       1.35 kg[grain yield]/m3[irrig]=   13.5 kg[yield]/ha per mm[irrig]

 N applied during growing season           323.0 kg[N applied]/ha
   Dry Matter Productivity                  52.6 kg[DM]/kg[N applied]
   Yield Productivity                       22.0 kg[yield]/kg[N applied]

 N uptake during growing season            221.5 kg[N uptake]/ha
   Dry Matter Productivity                  76.7 kg[DM]/kg[N uptake]
   Yield Productivity                       32.1 kg[yield]/kg[N uptake]

--------------------------------------------------------------------------------------------------------------

          WHEAT YIELD :     7108 kg/ha    [Dry weight] 

**************************************************************************************************************
  

*DSSAT Cropping System Model Ver. 4.8.2.000 -release  AUG 22, 2025 13:14:18

*RUN   3        : WW23_G-3                  CSCER048 CIOB2301    3
 MODEL          : CSCER048 - Wheat
 EXPERIMENT     : CIOB2301 WH ROOTS ANATOMY
 DATA PATH      : C:\DSSAT48\Wheat\
 TREATMENT  3   : WW23_G-3                  CSCER048


 CROP           : Wheat            CULTIVAR : ENTRY 3          ECOTYPE :CI0701
 STARTING DATE  : SEP  1 2022
 PLANTING DATE  : NOV 23 2022      PLANTS/m2 :   137.0    ROW SPACING :  20.cm
 WEATHER        : CIOB   2022
 SOIL           : CCENEB2301     TEXTURE : C     -   CIMMYT CENEB 710
 SOIL INIT COND : DEPTH:120cm EXTR. H2O: 82.8mm  NO3:484.0kg/ha  NH4:341.8kg/ha
 WATER BALANCE  : IRRIGATE ON REPORTED DATE(S)
 IRRIGATION     :      525 mm IN     9 APPLICATIONS
 NITROGEN BAL.  : SOIL-N & N-UPTAKE SIMULATION; NO N-FIXATION
 N-FERTILIZER   :      323 kg/ha IN     3 APPLICATIONS
 RESIDUE/MANURE : INITIAL :     0 kg/ha ;    2222 kg/ha IN     1 APPLICATIONS
 ENVIRONM. OPT. : DAYL=    0.00  SRAD=    0.00  TMAX=    0.00  TMIN=    0.00
                  RAIN=    0.00  CO2 =    0.00  DEW =    0.00  WIND=    0.00
 SIMULATION OPT : WATER   :Y  NITROGEN:Y  N-FIX:N  PHOSPH :N  PESTS  :N
                  PHOTO   :C  ET      :R  INFIL:S  HYDROL :R  SOM    :G
                  CO2 418ppm  NSWIT   :1  EVAP :R  SOIL   :2  STEMP  :D
 MANAGEMENT OPT : PLANTING:R  IRRIG   :R  FERT :R  RESIDUE:R  HARVEST:M
                  WEATHER :M  TILLAGE :Y

*SUMMARY OF SOIL AND GENETIC INPUT PARAMETERS

   SOIL LOWER UPPER   SAT  EXTR  INIT   ROOT   BULK     pH    NO3    NH4    ORG
  DEPTH LIMIT LIMIT    SW    SW    SW   DIST   DENS                          C
   cm   cm3/cm3    cm3/cm3    cm3/cm3         g/cm3         ugN/g  ugN/g     %
-------------------------------------------------------------------------------
  0-  5 0.143 0.204 0.268 0.061 0.172   1.00   1.35   8.50  29.00  29.00   1.08
  5- 15 0.143 0.204 0.268 0.061 0.172   1.00   1.35   8.50  29.00  29.00   1.08
 15- 30 0.143 0.204 0.268 0.061 0.172   1.00   1.35   8.50  29.00  29.00   1.08
 30- 45 0.166 0.234 0.274 0.068 0.225   0.41   1.58   8.50  27.00  16.00   0.80
 45- 60 0.166 0.234 0.274 0.068 0.225   0.41   1.58   8.50  27.00  16.00   0.80
 60- 90 0.155 0.227 0.276 0.072 0.207   0.22   1.50   7.90  53.00  33.00   0.87
 90-120 0.188 0.263 0.308 0.075 0.263   0.12   1.38   8.00   0.01   0.01   0.40

TOT-120  19.6  27.8  33.8   8.3  26.0  <--cm   -  kg/ha-->  484.0  341.8 137370
SOIL ALBEDO    : 0.13      EVAPORATION LIMIT : 6.00         MIN. FACTOR  : 1.00
RUNOFF CURVE # :61.00      DRAINAGE RATE     : 0.60         FERT. FACTOR : 1.00

 Wheat            CULTIVAR: 518062-ENTRY 3            ECOTYPE: CI0701
   P1V   P1D    P5    G1    G2    G3 PHINT
   2.0  39.3 567.6  22.9  47.7  0.50 120.0


*SIMULATED CROP AND SOIL STATUS AT MAIN DEVELOPMENT STAGES
  
 RUN NO.      3   ROOTS ANATOMY                                               

 ...... DATE ......  GROWTH STAGE BIOMASS   LEAF       CROP N      STRESS
 YEARDOY DOM MON DAP ............. kg/ha AREA NUMBER  kg/ha   %   H2O    N
 2022327  23 Nov   0 7 Sowing         0  0.00   0.0     0   0.0  0.00  0.00
 2022328  24 Nov   1 8 Germinate      0  0.00   0.0     0   0.0  0.00  0.00
 2022330  26 Nov   3 9 Emergence      0  0.00   0.0     0   0.0  0.00  0.00
 2023023  23 Jan  61 1 Term Spklt  1552  2.69   9.2    73   4.7  0.30  0.11
 2023041  10 Feb  79 2 End Veg     3740  5.62  11.5   123   3.3  0.07  0.00
 2023054  23 Feb  92 3 End Ear Gr  5875  5.05  11.5   120   2.1  0.00  0.00
 2023070  11 Mar 108 4 Beg Gr Fil  9152  4.27  11.5   119   1.3  0.11  0.00
 2023100  10 Apr 138 5 End Gr Fil 16641  1.14  11.5   189   1.1  0.08  0.00
 2023100  10 Apr 138 6 Harvest    16641  1.14  11.5   189   1.1  0.52  0.00
  

*MAIN GROWTH AND DEVELOPMENT VARIABLES

@     VARIABLE                             SIMULATED     MEASURED
      --------                             ---------     --------
      Emergence (DAP)                            3            7
      Anthesis (DAP)                            95           95
      Maturity (DAP)                           138          138
      Product wt (kg dm/ha;no loss)           7100         7260
      Product unit weight (g dm)             0.048        0.049
      Product number (no/m2)                 14885        14914
      Product number (no/group)               11.0        -99.0
      Product harvest index (ratio)           0.43         0.43
      Maximum leaf area index                  5.6          5.6
      Final leaf number (one axis)            11.5        -99.0
      Final shoot number (#/m2)               1355          -99
      Canopy (tops) wt (kg dm/ha)            16641        16824
      Vegetative wt (kg dm/ha)                9540         9564
      Root wt (kg dm/ha)                       924          -99
      Assimilate wt (kg dm/ha)               18456          -99
      Senesced wt (kg dm/ha)                   280          -99
      Reserves wt (kg dm/ha)                  4520          -99
      N uptake (kg/ha)                       207.3        -99.0
      N senesced (kg/ha)                       3.8        -99.0
      Above-ground N (kg/ha)                 188.7        -99.0
      Root N (kg/ha)                          15.5        -99.0
      Vegetative N (kg/ha)                    37.2        -99.0
      Product N (kg/ha)                      151.5        139.3
      Product N harvest index (ratio)         0.80       -99.00
      Product N (%)                            2.1          1.9
      Vegetative N (%)                         0.4        -99.0
      Leaf+stem wt,anthesis (kg dm/ha)        6425          -99
      Leaf+stem N,anthesis (kg/ha)           120.0        -99.0
      Leaf N,anthesis (%)                      3.1        -99.0

*ENVIRONMENTAL AND STRESS FACTORS

 |-----Development Phase------|-------------Environment--------------|----------------Stress-----------------|
                              |--------Average-------|---Cumulative--|         (0=Min, 1=Max Stress)         |
                         Time  Temp  Temp Solar Photop         Evapo |----Water---|--Nitrogen--|--Phosphorus-|
                         Span   Max   Min   Rad  [day]   Rain  Trans  Photo         Photo         Photo
                         days    °C    °C MJ/m2     hr     mm     mm  synth Growth ' synth Growth  synth Growth
--------------------------------------------------------------------------------------------------------------
 Germinate  - Term Spklt   58  26.4   7.3  14.2  11.34   10.0   82.6  0.304  0.407  0.110  0.110 -99.00 -99.00
 Term Spklt - End Veg      18  25.7   5.3  16.4  11.69    0.1   54.4  0.071  0.126  0.000  0.000 -99.00 -99.00
 End Veg    - End Ear Gr   13  22.8   8.0  14.5  12.01   12.1   36.4  0.004  0.036  0.000  0.000 -99.00 -99.00
 End Ear Gr - Beg Gr Fil   16  26.3   6.3  19.1  12.37    0.1   54.2  0.114  0.165  0.000  0.000 -99.00 -99.00
 Beg Gr Fil - End Gr Fil   30  29.2   8.8  23.0  13.00   65.8  128.3  0.078  0.115  0.000  0.000 -99.00 -99.00
  
 Germinate  - End Gr Fil  135  26.6   7.3  17.1  11.94   88.1  355.9  0.171  0.240  0.047  0.047 -99.00 -99.00
--------------------------------------------------------------------------------------------------------------


*RESOURCE PRODUCTIVITY

 Growing season length: 135 days 

 Precipitation during growth season         88.1 mm[rain]
   Dry Matter Productivity                 18.89 kg[DM]/m3[rain]          =  188.9 kg[DM]/ha per mm[rain]
   Yield Productivity                       8.06 kg[grain yield]/m3[rain] =   80.6 kg[yield]/ha per mm[rain]

 Evapotranspiration during growth season   355.9 mm[ET]
   Dry Matter Productivity                  4.68 kg[DM]/m3[ET]            =   46.8 kg[DM]/ha per mm[ET]
   Yield Productivity                       1.99 kg[grain yield]/m3[ET]   =   19.9 kg[yield]/ha per mm[ET]

 Transpiration during growth season        290.4 mm[EP]
   Dry Matter Productivity                  5.73 kg[DM]/m3[EP]            =   57.3 kg[DM]/ha per mm[EP]
   Yield Productivity                       2.45 kg[grain yield]/m3[EP]   =   24.5 kg[yield]/ha per mm[EP]

 Irrigation during growing season          525.1 mm[irrig]
   Dry Matter Productivity                  3.17 kg[DM]/m3[irrig]         =   31.7 kg[DM]/ha per mm[irrig]
   Yield Productivity                       1.35 kg[grain yield]/m3[irrig]=   13.5 kg[yield]/ha per mm[irrig]

 N applied during growing season           323.0 kg[N applied]/ha
   Dry Matter Productivity                  51.5 kg[DM]/kg[N applied]
   Yield Productivity                       22.0 kg[yield]/kg[N applied]

 N uptake during growing season            207.3 kg[N uptake]/ha
   Dry Matter Productivity                  80.3 kg[DM]/kg[N uptake]
   Yield Productivity                       34.3 kg[yield]/kg[N uptake]

--------------------------------------------------------------------------------------------------------------

          WHEAT YIELD :     7100 kg/ha    [Dry weight] 

**************************************************************************************************************
  

*DSSAT Cropping System Model Ver. 4.8.2.000 -release  AUG 22, 2025 13:14:18

*RUN   4        : WW23_G-4                  CSCER048 CIOB2301    4
 MODEL          : CSCER048 - Wheat
 EXPERIMENT     : CIOB2301 WH ROOTS ANATOMY
 DATA PATH      : C:\DSSAT48\Wheat\
 TREATMENT  4   : WW23_G-4                  CSCER048


 CROP           : Wheat            CULTIVAR : ENTRY 4          ECOTYPE :CI0701
 STARTING DATE  : SEP  1 2022
 PLANTING DATE  : NOV 23 2022      PLANTS/m2 :   137.0    ROW SPACING :  20.cm
 WEATHER        : CIOB   2022
 SOIL           : CCENEB2301     TEXTURE : C     -   CIMMYT CENEB 710
 SOIL INIT COND : DEPTH:120cm EXTR. H2O: 82.8mm  NO3:484.0kg/ha  NH4:341.8kg/ha
 WATER BALANCE  : IRRIGATE ON REPORTED DATE(S)
 IRRIGATION     :      525 mm IN     9 APPLICATIONS
 NITROGEN BAL.  : SOIL-N & N-UPTAKE SIMULATION; NO N-FIXATION
 N-FERTILIZER   :      323 kg/ha IN     3 APPLICATIONS
 RESIDUE/MANURE : INITIAL :     0 kg/ha ;    2222 kg/ha IN     1 APPLICATIONS
 ENVIRONM. OPT. : DAYL=    0.00  SRAD=    0.00  TMAX=    0.00  TMIN=    0.00
                  RAIN=    0.00  CO2 =    0.00  DEW =    0.00  WIND=    0.00
 SIMULATION OPT : WATER   :Y  NITROGEN:Y  N-FIX:N  PHOSPH :N  PESTS  :N
                  PHOTO   :C  ET      :R  INFIL:S  HYDROL :R  SOM    :G
                  CO2 418ppm  NSWIT   :1  EVAP :R  SOIL   :2  STEMP  :D
 MANAGEMENT OPT : PLANTING:R  IRRIG   :R  FERT :R  RESIDUE:R  HARVEST:M
                  WEATHER :M  TILLAGE :Y

*SUMMARY OF SOIL AND GENETIC INPUT PARAMETERS

   SOIL LOWER UPPER   SAT  EXTR  INIT   ROOT   BULK     pH    NO3    NH4    ORG
  DEPTH LIMIT LIMIT    SW    SW    SW   DIST   DENS                          C
   cm   cm3/cm3    cm3/cm3    cm3/cm3         g/cm3         ugN/g  ugN/g     %
-------------------------------------------------------------------------------
  0-  5 0.143 0.204 0.268 0.061 0.172   1.00   1.35   8.50  29.00  29.00   1.08
  5- 15 0.143 0.204 0.268 0.061 0.172   1.00   1.35   8.50  29.00  29.00   1.08
 15- 30 0.143 0.204 0.268 0.061 0.172   1.00   1.35   8.50  29.00  29.00   1.08
 30- 45 0.166 0.234 0.274 0.068 0.225   0.41   1.58   8.50  27.00  16.00   0.80
 45- 60 0.166 0.234 0.274 0.068 0.225   0.41   1.58   8.50  27.00  16.00   0.80
 60- 90 0.155 0.227 0.276 0.072 0.207   0.22   1.50   7.90  53.00  33.00   0.87
 90-120 0.188 0.263 0.308 0.075 0.263   0.12   1.38   8.00   0.01   0.01   0.40

TOT-120  19.6  27.8  33.8   8.3  26.0  <--cm   -  kg/ha-->  484.0  341.8 137370
SOIL ALBEDO    : 0.13      EVAPORATION LIMIT : 6.00         MIN. FACTOR  : 1.00
RUNOFF CURVE # :61.00      DRAINAGE RATE     : 0.60         FERT. FACTOR : 1.00

 Wheat            CULTIVAR: 617502-ENTRY 4            ECOTYPE: CI0701
   P1V   P1D    P5    G1    G2    G3 PHINT
   2.0  47.1 546.3  21.5  51.0  8.00  92.6


*SIMULATED CROP AND SOIL STATUS AT MAIN DEVELOPMENT STAGES
  
 RUN NO.      4   ROOTS ANATOMY                                               

 ...... DATE ......  GROWTH STAGE BIOMASS   LEAF       CROP N      STRESS
 YEARDOY DOM MON DAP ............. kg/ha AREA NUMBER  kg/ha   %   H2O    N
 2022327  23 Nov   0 7 Sowing         0  0.00   0.0     0   0.0  0.00  0.00
 2022328  24 Nov   1 8 Germinate      0  0.00   0.0     0   0.0  0.00  0.00
 2022330  26 Nov   3 9 Emergence      0  0.00   0.0     0   0.0  0.00  0.00
 2023027  27 Jan  65 1 Term Spklt  1850  2.99  12.2    87   4.7  0.27  0.11
 2023045  14 Feb  83 2 End Veg     3941  5.41  15.2   130   3.3  0.06  0.00
 2023058  27 Feb  96 3 End Ear Gr  6255  4.51  15.2   127   2.0  0.01  0.00
 2023073  14 Mar 111 4 Beg Gr Fil  9530  3.49  15.2   126   1.3  0.11  0.00
 2023102  12 Apr 140 5 End Gr Fil 16269  0.65  15.2   201   1.2  0.08  0.00
 2023102  12 Apr 140 6 Harvest    16269  0.65  15.2   201   1.2  0.43  0.00
  

*MAIN GROWTH AND DEVELOPMENT VARIABLES

@     VARIABLE                             SIMULATED     MEASURED
      --------                             ---------     --------
      Emergence (DAP)                            3            7
      Anthesis (DAP)                            99           97
      Maturity (DAP)                           140          141
      Product wt (kg dm/ha;no loss)           7521         7183
      Product unit weight (g dm)             0.051        0.049
      Product number (no/m2)                 14747        14585
      Product number (no/group)               29.5        -99.0
      Product harvest index (ratio)           0.46         0.46
      Maximum leaf area index                  5.4          5.5
      Final leaf number (one axis)            15.2        -99.0
      Final shoot number (#/m2)                500          -99
      Canopy (tops) wt (kg dm/ha)            16269        15767
      Vegetative wt (kg dm/ha)                8748         8584
      Root wt (kg dm/ha)                       961          -99
      Assimilate wt (kg dm/ha)               18220          -99
      Senesced wt (kg dm/ha)                   352          -99
      Reserves wt (kg dm/ha)                  3689          -99
      N uptake (kg/ha)                       220.4        -99.0
      N senesced (kg/ha)                       4.9        -99.0
      Above-ground N (kg/ha)                 200.5        -99.0
      Root N (kg/ha)                          15.8        -99.0
      Vegetative N (kg/ha)                    37.5        -99.0
      Product N (kg/ha)                      163.0        153.2
      Product N harvest index (ratio)         0.81       -99.00
      Product N (%)                            2.2          2.1
      Vegetative N (%)                         0.4        -99.0
      Leaf+stem wt,anthesis (kg dm/ha)        6798          -99
      Leaf+stem N,anthesis (kg/ha)           126.3        -99.0
      Leaf N,anthesis (%)                      3.0        -99.0

*ENVIRONMENTAL AND STRESS FACTORS

 |-----Development Phase------|-------------Environment--------------|----------------Stress-----------------|
                              |--------Average-------|---Cumulative--|         (0=Min, 1=Max Stress)         |
                         Time  Temp  Temp Solar Photop         Evapo |----Water---|--Nitrogen--|--Phosphorus-|
                         Span   Max   Min   Rad  [day]   Rain  Trans  Photo         Photo         Photo
                         days    °C    °C MJ/m2     hr     mm     mm  synth Growth ' synth Growth  synth Growth
--------------------------------------------------------------------------------------------------------------
 Germinate  - Term Spklt   62  26.2   7.1  14.3  11.35   10.0   93.4  0.266  0.363  0.113  0.113 -99.00 -99.00
 Term Spklt - End Veg      18  25.5   5.7  15.6  11.76    0.1   52.3  0.061  0.120  0.000  0.000 -99.00 -99.00
 End Veg    - End Ear Gr   13  23.3   8.2  15.8  12.11   12.1   39.9  0.005  0.031  0.000  0.000 -99.00 -99.00
 End Ear Gr - Beg Gr Fil   15  28.1   7.0  20.4  12.46    0.1   57.1  0.106  0.159  0.000  0.000 -99.00 -99.00
 Beg Gr Fil - End Gr Fil   29  29.1   8.7  23.2  13.07   65.8  116.6  0.082  0.121  0.000  0.000 -99.00 -99.00
  
 Germinate  - End Gr Fil  137  26.7   7.4  17.2  11.96   88.1  359.2  0.158  0.226  0.051  0.051 -99.00 -99.00
--------------------------------------------------------------------------------------------------------------


*RESOURCE PRODUCTIVITY

 Growing season length: 137 days 

 Precipitation during growth season         88.1 mm[rain]
   Dry Matter Productivity                 18.47 kg[DM]/m3[rain]          =  184.7 kg[DM]/ha per mm[rain]
   Yield Productivity                       8.54 kg[grain yield]/m3[rain] =   85.4 kg[yield]/ha per mm[rain]

 Evapotranspiration during growth season   359.2 mm[ET]
   Dry Matter Productivity                  4.53 kg[DM]/m3[ET]            =   45.3 kg[DM]/ha per mm[ET]
   Yield Productivity                       2.09 kg[grain yield]/m3[ET]   =   20.9 kg[yield]/ha per mm[ET]

 Transpiration during growth season        285.6 mm[EP]
   Dry Matter Productivity                  5.70 kg[DM]/m3[EP]            =   57.0 kg[DM]/ha per mm[EP]
   Yield Productivity                       2.63 kg[grain yield]/m3[EP]   =   26.3 kg[yield]/ha per mm[EP]

 Irrigation during growing season          525.1 mm[irrig]
   Dry Matter Productivity                  3.10 kg[DM]/m3[irrig]         =   31.0 kg[DM]/ha per mm[irrig]
   Yield Productivity                       1.43 kg[grain yield]/m3[irrig]=   14.3 kg[yield]/ha per mm[irrig]

 N applied during growing season           323.0 kg[N applied]/ha
   Dry Matter Productivity                  50.4 kg[DM]/kg[N applied]
   Yield Productivity                       23.3 kg[yield]/kg[N applied]

 N uptake during growing season            220.4 kg[N uptake]/ha
   Dry Matter Productivity                  73.8 kg[DM]/kg[N uptake]
   Yield Productivity                       34.1 kg[yield]/kg[N uptake]

--------------------------------------------------------------------------------------------------------------

          WHEAT YIELD :     7521 kg/ha    [Dry weight] 

**************************************************************************************************************
  

*DSSAT Cropping System Model Ver. 4.8.2.000 -release  AUG 22, 2025 13:14:18

*RUN   5        : WW23_G-5                  CSCER048 CIOB2301    5
 MODEL          : CSCER048 - Wheat
 EXPERIMENT     : CIOB2301 WH ROOTS ANATOMY
 DATA PATH      : C:\DSSAT48\Wheat\
 TREATMENT  5   : WW23_G-5                  CSCER048


 CROP           : Wheat            CULTIVAR : ENTRY 5          ECOTYPE :CI0700
 STARTING DATE  : SEP  1 2022
 PLANTING DATE  : NOV 23 2022      PLANTS/m2 :   137.0    ROW SPACING :  20.cm
 WEATHER        : CIOB   2022
 SOIL           : CCENEB2301     TEXTURE : C     -   CIMMYT CENEB 710
 SOIL INIT COND : DEPTH:120cm EXTR. H2O: 82.8mm  NO3:484.0kg/ha  NH4:341.8kg/ha
 WATER BALANCE  : IRRIGATE ON REPORTED DATE(S)
 IRRIGATION     :      525 mm IN     9 APPLICATIONS
 NITROGEN BAL.  : SOIL-N & N-UPTAKE SIMULATION; NO N-FIXATION
 N-FERTILIZER   :      323 kg/ha IN     3 APPLICATIONS
 RESIDUE/MANURE : INITIAL :     0 kg/ha ;    2222 kg/ha IN     1 APPLICATIONS
 ENVIRONM. OPT. : DAYL=    0.00  SRAD=    0.00  TMAX=    0.00  TMIN=    0.00
                  RAIN=    0.00  CO2 =    0.00  DEW =    0.00  WIND=    0.00
 SIMULATION OPT : WATER   :Y  NITROGEN:Y  N-FIX:N  PHOSPH :N  PESTS  :N
                  PHOTO   :C  ET      :R  INFIL:S  HYDROL :R  SOM    :G
                  CO2 418ppm  NSWIT   :1  EVAP :R  SOIL   :2  STEMP  :D
 MANAGEMENT OPT : PLANTING:R  IRRIG   :R  FERT :R  RESIDUE:R  HARVEST:M
                  WEATHER :M  TILLAGE :Y

*SUMMARY OF SOIL AND GENETIC INPUT PARAMETERS

   SOIL LOWER UPPER   SAT  EXTR  INIT   ROOT   BULK     pH    NO3    NH4    ORG
  DEPTH LIMIT LIMIT    SW    SW    SW   DIST   DENS                          C
   cm   cm3/cm3    cm3/cm3    cm3/cm3         g/cm3         ugN/g  ugN/g     %
-------------------------------------------------------------------------------
  0-  5 0.143 0.204 0.268 0.061 0.172   1.00   1.35   8.50  29.00  29.00   1.08
  5- 15 0.143 0.204 0.268 0.061 0.172   1.00   1.35   8.50  29.00  29.00   1.08
 15- 30 0.143 0.204 0.268 0.061 0.172   1.00   1.35   8.50  29.00  29.00   1.08
 30- 45 0.166 0.234 0.274 0.068 0.225   0.41   1.58   8.50  27.00  16.00   0.80
 45- 60 0.166 0.234 0.274 0.068 0.225   0.41   1.58   8.50  27.00  16.00   0.80
 60- 90 0.155 0.227 0.276 0.072 0.207   0.22   1.50   7.90  53.00  33.00   0.87
 90-120 0.188 0.263 0.308 0.075 0.263   0.12   1.38   8.00   0.01   0.01   0.40

TOT-120  19.6  27.8  33.8   8.3  26.0  <--cm   -  kg/ha-->  484.0  341.8 137370
SOIL ALBEDO    : 0.13      EVAPORATION LIMIT : 6.00         MIN. FACTOR  : 1.00
RUNOFF CURVE # :61.00      DRAINAGE RATE     : 0.60         FERT. FACTOR : 1.00

 Wheat            CULTIVAR: 617636-ENTRY 5            ECOTYPE: CI0700
   P1V   P1D    P5    G1    G2    G3 PHINT
   2.0  32.2 621.8  18.5  49.9  0.50 100.7


*SIMULATED CROP AND SOIL STATUS AT MAIN DEVELOPMENT STAGES
  
 RUN NO.      5   ROOTS ANATOMY                                               

 ...... DATE ......  GROWTH STAGE BIOMASS   LEAF       CROP N      STRESS
 YEARDOY DOM MON DAP ............. kg/ha AREA NUMBER  kg/ha   %   H2O    N
 2022327  23 Nov   0 7 Sowing         0  0.00   0.0     0   0.0  0.00  0.00
 2022328  24 Nov   1 8 Germinate      0  0.00   0.0     0   0.0  0.00  0.00
 2022330  26 Nov   3 9 Emergence      0  0.00   0.0     0   0.0  0.00  0.00
 2023027  27 Jan  65 1 Term Spklt  1778  2.99  11.3    85   4.8  0.26  0.07
 2023045  14 Feb  83 2 End Veg     3552  5.27  14.1   120   3.4  0.04  0.00
 2023058  27 Feb  96 3 End Ear Gr  6527  4.73  14.1   116   1.8  0.00  0.00
 2023073  14 Mar 111 4 Beg Gr Fil 10865  4.16  14.1   114   1.0  0.09  0.00
 2023106  16 Apr 144 5 End Gr Fil 20000  1.35  14.1   163   0.8  0.23  0.00
 2023106  16 Apr 144 6 Harvest    20000  1.35  14.1   163   0.8  0.78  0.00
  

*MAIN GROWTH AND DEVELOPMENT VARIABLES

@     VARIABLE                             SIMULATED     MEASURED
      --------                             ---------     --------
      Emergence (DAP)                            3            7
      Anthesis (DAP)                           100          100
      Maturity (DAP)                           144          144
      Product wt (kg dm/ha;no loss)           6345         7020
      Product unit weight (g dm)             0.045        0.049
      Product number (no/m2)                 14172        14222
      Product number (no/group)                6.3        -99.0
      Product harvest index (ratio)           0.32         0.34
      Maximum leaf area index                  5.3          5.3
      Final leaf number (one axis)            14.1        -99.0
      Final shoot number (#/m2)               2254          -99
      Canopy (tops) wt (kg dm/ha)            20000        20705
      Vegetative wt (kg dm/ha)               13655        13685
      Root wt (kg dm/ha)                      1019          -99
      Assimilate wt (kg dm/ha)               22003          -99
      Senesced wt (kg dm/ha)                   304          -99
      Reserves wt (kg dm/ha)                  7917          -99
      N uptake (kg/ha)                       183.1        -99.0
      N senesced (kg/ha)                       4.2        -99.0
      Above-ground N (kg/ha)                 162.6        -99.0
      Root N (kg/ha)                          17.1        -99.0
      Vegetative N (kg/ha)                    40.6        -99.0
      Product N (kg/ha)                      121.9        148.5
      Product N harvest index (ratio)         0.75       -99.00
      Product N (%)                            1.9          2.1
      Vegetative N (%)                         0.3        -99.0
      Leaf+stem wt,anthesis (kg dm/ha)        7564          -99
      Leaf+stem N,anthesis (kg/ha)           114.8        -99.0
      Leaf N,anthesis (%)                      3.0        -99.0

*ENVIRONMENTAL AND STRESS FACTORS

 |-----Development Phase------|-------------Environment--------------|----------------Stress-----------------|
                              |--------Average-------|---Cumulative--|         (0=Min, 1=Max Stress)         |
                         Time  Temp  Temp Solar Photop         Evapo |----Water---|--Nitrogen--|--Phosphorus-|
                         Span   Max   Min   Rad  [day]   Rain  Trans  Photo         Photo         Photo
                         days    °C    °C MJ/m2     hr     mm     mm  synth Growth ' synth Growth  synth Growth
--------------------------------------------------------------------------------------------------------------
 Germinate  - Term Spklt   62  26.2   7.1  14.3  11.35   10.0   99.4  0.260  0.359  0.068  0.068 -99.00 -99.00
 Term Spklt - End Veg      18  25.5   5.7  15.6  11.76    0.1   53.5  0.039  0.082  0.000  0.000 -99.00 -99.00
 End Veg    - End Ear Gr   13  23.3   8.2  15.8  12.11   12.1   40.2  0.000  0.013  0.000  0.000 -99.00 -99.00
 End Ear Gr - Beg Gr Fil   15  28.1   7.0  20.4  12.46    0.1   57.7  0.093  0.145  0.000  0.000 -99.00 -99.00
 Beg Gr Fil - End Gr Fil   33  29.1   9.0  23.4  13.12   65.8  122.8  0.233  0.271  0.000  0.000 -99.00 -99.00
  
 Germinate  - End Gr Fil  141  26.7   7.5  17.4  12.01   88.1  373.6  0.184  0.249  0.030  0.030 -99.00 -99.00
--------------------------------------------------------------------------------------------------------------


*RESOURCE PRODUCTIVITY

 Growing season length: 141 days 

 Precipitation during growth season         88.1 mm[rain]
   Dry Matter Productivity                 22.70 kg[DM]/m3[rain]          =  227.0 kg[DM]/ha per mm[rain]
   Yield Productivity                       7.20 kg[grain yield]/m3[rain] =   72.0 kg[yield]/ha per mm[rain]

 Evapotranspiration during growth season   373.6 mm[ET]
   Dry Matter Productivity                  5.35 kg[DM]/m3[ET]            =   53.5 kg[DM]/ha per mm[ET]
   Yield Productivity                       1.70 kg[grain yield]/m3[ET]   =   17.0 kg[yield]/ha per mm[ET]

 Transpiration during growth season        315.0 mm[EP]
   Dry Matter Productivity                  6.35 kg[DM]/m3[EP]            =   63.5 kg[DM]/ha per mm[EP]
   Yield Productivity                       2.01 kg[grain yield]/m3[EP]   =   20.1 kg[yield]/ha per mm[EP]

 Irrigation during growing season          525.1 mm[irrig]
   Dry Matter Productivity                  3.81 kg[DM]/m3[irrig]         =   38.1 kg[DM]/ha per mm[irrig]
   Yield Productivity                       1.21 kg[grain yield]/m3[irrig]=   12.1 kg[yield]/ha per mm[irrig]

 N applied during growing season           323.0 kg[N applied]/ha
   Dry Matter Productivity                  61.9 kg[DM]/kg[N applied]
   Yield Productivity                       19.6 kg[yield]/kg[N applied]

 N uptake during growing season            183.1 kg[N uptake]/ha
   Dry Matter Productivity                 109.2 kg[DM]/kg[N uptake]
   Yield Productivity                       34.7 kg[yield]/kg[N uptake]

--------------------------------------------------------------------------------------------------------------

          WHEAT YIELD :     6345 kg/ha    [Dry weight] 

**************************************************************************************************************
  

*DSSAT Cropping System Model Ver. 4.8.2.000 -release  AUG 22, 2025 13:14:18

*RUN   6        : WW23_G-6                  CSCER048 CIOB2301    6
 MODEL          : CSCER048 - Wheat
 EXPERIMENT     : CIOB2301 WH ROOTS ANATOMY
 DATA PATH      : C:\DSSAT48\Wheat\
 TREATMENT  6   : WW23_G-6                  CSCER048


 CROP           : Wheat            CULTIVAR : ENTRY 6          ECOTYPE :CI0700
 STARTING DATE  : SEP  1 2022
 PLANTING DATE  : NOV 23 2022      PLANTS/m2 :   137.0    ROW SPACING :  20.cm
 WEATHER        : CIOB   2022
 SOIL           : CCENEB2301     TEXTURE : C     -   CIMMYT CENEB 710
 SOIL INIT COND : DEPTH:120cm EXTR. H2O: 82.8mm  NO3:484.0kg/ha  NH4:341.8kg/ha
 WATER BALANCE  : IRRIGATE ON REPORTED DATE(S)
 IRRIGATION     :      525 mm IN     9 APPLICATIONS
 NITROGEN BAL.  : SOIL-N & N-UPTAKE SIMULATION; NO N-FIXATION
 N-FERTILIZER   :      323 kg/ha IN     3 APPLICATIONS
 RESIDUE/MANURE : INITIAL :     0 kg/ha ;    2222 kg/ha IN     1 APPLICATIONS
 ENVIRONM. OPT. : DAYL=    0.00  SRAD=    0.00  TMAX=    0.00  TMIN=    0.00
                  RAIN=    0.00  CO2 =    0.00  DEW =    0.00  WIND=    0.00
 SIMULATION OPT : WATER   :Y  NITROGEN:Y  N-FIX:N  PHOSPH :N  PESTS  :N
                  PHOTO   :C  ET      :R  INFIL:S  HYDROL :R  SOM    :G
                  CO2 418ppm  NSWIT   :1  EVAP :R  SOIL   :2  STEMP  :D
 MANAGEMENT OPT : PLANTING:R  IRRIG   :R  FERT :R  RESIDUE:R  HARVEST:M
                  WEATHER :M  TILLAGE :Y

*SUMMARY OF SOIL AND GENETIC INPUT PARAMETERS

   SOIL LOWER UPPER   SAT  EXTR  INIT   ROOT   BULK     pH    NO3    NH4    ORG
  DEPTH LIMIT LIMIT    SW    SW    SW   DIST   DENS                          C
   cm   cm3/cm3    cm3/cm3    cm3/cm3         g/cm3         ugN/g  ugN/g     %
-------------------------------------------------------------------------------
  0-  5 0.143 0.204 0.268 0.061 0.172   1.00   1.35   8.50  29.00  29.00   1.08
  5- 15 0.143 0.204 0.268 0.061 0.172   1.00   1.35   8.50  29.00  29.00   1.08
 15- 30 0.143 0.204 0.268 0.061 0.172   1.00   1.35   8.50  29.00  29.00   1.08
 30- 45 0.166 0.234 0.274 0.068 0.225   0.41   1.58   8.50  27.00  16.00   0.80
 45- 60 0.166 0.234 0.274 0.068 0.225   0.41   1.58   8.50  27.00  16.00   0.80
 60- 90 0.155 0.227 0.276 0.072 0.207   0.22   1.50   7.90  53.00  33.00   0.87
 90-120 0.188 0.263 0.308 0.075 0.263   0.12   1.38   8.00   0.01   0.01   0.40

TOT-120  19.6  27.8  33.8   8.3  26.0  <--cm   -  kg/ha-->  484.0  341.8 137370
SOIL ALBEDO    : 0.13      EVAPORATION LIMIT : 6.00         MIN. FACTOR  : 1.00
RUNOFF CURVE # :61.00      DRAINAGE RATE     : 0.60         FERT. FACTOR : 1.00

 Wheat            CULTIVAR: 474812-ENTRY 6            ECOTYPE: CI0700
   P1V   P1D    P5    G1    G2    G3 PHINT
   2.0  36.0 569.4  21.9  55.3  4.00  97.1


*SIMULATED CROP AND SOIL STATUS AT MAIN DEVELOPMENT STAGES
  
 RUN NO.      6   ROOTS ANATOMY                                               

 ...... DATE ......  GROWTH STAGE BIOMASS   LEAF       CROP N      STRESS
 YEARDOY DOM MON DAP ............. kg/ha AREA NUMBER  kg/ha   %   H2O    N
 2022327  23 Nov   0 7 Sowing         0  0.00   0.0     0   0.0  0.00  0.00
 2022328  24 Nov   1 8 Germinate      0  0.00   0.0     0   0.0  0.00  0.00
 2022330  26 Nov   3 9 Emergence      0  0.00   0.0     0   0.0  0.00  0.00
 2023029  29 Jan  67 1 Term Spklt  1923  3.12  12.0    90   4.7  0.25  0.07
 2023047  16 Feb  85 2 End Veg     3740  5.41  14.8   125   3.3  0.04  0.00
 2023060   1 Mar  98 3 End Ear Gr  6558  4.85  14.8   121   1.8  0.00  0.00
 2023074  15 Mar 112 4 Beg Gr Fil 10827  3.94  14.8   119   1.1  0.10  0.00
 2023104  14 Apr 142 5 End Gr Fil 19482  1.28  14.8   200   1.0  0.19  0.00
 2023104  14 Apr 142 6 Harvest    19482  1.28  14.8   200   1.0  0.71  0.00
  

*MAIN GROWTH AND DEVELOPMENT VARIABLES

@     VARIABLE                             SIMULATED     MEASURED
      --------                             ---------     --------
      Emergence (DAP)                            3            7
      Anthesis (DAP)                           102          100
      Maturity (DAP)                           142          143
      Product wt (kg dm/ha;no loss)           8203         6947
      Product unit weight (g dm)             0.049        0.042
      Product number (no/m2)                 16777        16489
      Product number (no/group)               18.6        -99.0
      Product harvest index (ratio)           0.42         0.39
      Maximum leaf area index                  5.4          5.7
      Final leaf number (one axis)            14.8        -99.0
      Final shoot number (#/m2)                903          -99
      Canopy (tops) wt (kg dm/ha)            19482        17928
      Vegetative wt (kg dm/ha)               11278        10981
      Root wt (kg dm/ha)                      1029          -99
      Assimilate wt (kg dm/ha)               21556          -99
      Senesced wt (kg dm/ha)                   360          -99
      Reserves wt (kg dm/ha)                  5525          -99
      N uptake (kg/ha)                       221.7        -99.0
      N senesced (kg/ha)                       5.0        -99.0
      Above-ground N (kg/ha)                 200.3        -99.0
      Root N (kg/ha)                          17.2        -99.0
      Vegetative N (kg/ha)                    42.7        -99.0
      Product N (kg/ha)                      157.7        133.9
      Product N harvest index (ratio)         0.79       -99.00
      Product N (%)                            1.9          1.9
      Vegetative N (%)                         0.4        -99.0
      Leaf+stem wt,anthesis (kg dm/ha)        7702          -99
      Leaf+stem N,anthesis (kg/ha)           119.7        -99.0
      Leaf N,anthesis (%)                      3.0        -99.0

*ENVIRONMENTAL AND STRESS FACTORS

 |-----Development Phase------|-------------Environment--------------|----------------Stress-----------------|
                              |--------Average-------|---Cumulative--|         (0=Min, 1=Max Stress)         |
                         Time  Temp  Temp Solar Photop         Evapo |----Water---|--Nitrogen--|--Phosphorus-|
                         Span   Max   Min   Rad  [day]   Rain  Trans  Photo         Photo         Photo
                         days    °C    °C MJ/m2     hr     mm     mm  synth Growth ' synth Growth  synth Growth
--------------------------------------------------------------------------------------------------------------
 Germinate  - Term Spklt   64  26.2   7.1  14.4  11.36   10.0  105.7  0.250  0.347  0.067  0.067 -99.00 -99.00
 Term Spklt - End Veg      18  25.1   5.9  15.8  11.81    3.6   54.0  0.036  0.085  0.000  0.000 -99.00 -99.00
 End Veg    - End Ear Gr   13  23.5   8.2  15.0  12.15    8.6   38.1  0.000  0.000  0.000  0.000 -99.00 -99.00
 End Ear Gr - Beg Gr Fil   14  29.0   7.3  21.5  12.50    0.1   57.3  0.099  0.155  0.000  0.000 -99.00 -99.00
 Beg Gr Fil - End Gr Fil   30  29.0   8.9  23.3  13.11   65.8  116.8  0.193  0.231  0.000  0.000 -99.00 -99.00
  
 Germinate  - End Gr Fil  139  26.7   7.4  17.3  11.99   88.1  372.0  0.172  0.236  0.031  0.031 -99.00 -99.00
--------------------------------------------------------------------------------------------------------------


*RESOURCE PRODUCTIVITY

 Growing season length: 139 days 

 Precipitation during growth season         88.1 mm[rain]
   Dry Matter Productivity                 22.11 kg[DM]/m3[rain]          =  221.1 kg[DM]/ha per mm[rain]
   Yield Productivity                       9.31 kg[grain yield]/m3[rain] =   93.1 kg[yield]/ha per mm[rain]

 Evapotranspiration during growth season   372.0 mm[ET]
   Dry Matter Productivity                  5.24 kg[DM]/m3[ET]            =   52.4 kg[DM]/ha per mm[ET]
   Yield Productivity                       2.21 kg[grain yield]/m3[ET]   =   22.1 kg[yield]/ha per mm[ET]

 Transpiration during growth season        312.1 mm[EP]
   Dry Matter Productivity                  6.24 kg[DM]/m3[EP]            =   62.4 kg[DM]/ha per mm[EP]
   Yield Productivity                       2.63 kg[grain yield]/m3[EP]   =   26.3 kg[yield]/ha per mm[EP]

 Irrigation during growing season          525.1 mm[irrig]
   Dry Matter Productivity                  3.71 kg[DM]/m3[irrig]         =   37.1 kg[DM]/ha per mm[irrig]
   Yield Productivity                       1.56 kg[grain yield]/m3[irrig]=   15.6 kg[yield]/ha per mm[irrig]

 N applied during growing season           323.0 kg[N applied]/ha
   Dry Matter Productivity                  60.3 kg[DM]/kg[N applied]
   Yield Productivity                       25.4 kg[yield]/kg[N applied]

 N uptake during growing season            221.7 kg[N uptake]/ha
   Dry Matter Productivity                  87.9 kg[DM]/kg[N uptake]
   Yield Productivity                       37.0 kg[yield]/kg[N uptake]

--------------------------------------------------------------------------------------------------------------

          WHEAT YIELD :     8203 kg/ha    [Dry weight] 

**************************************************************************************************************
  

*DSSAT Cropping System Model Ver. 4.8.2.000 -release  AUG 22, 2025 13:14:18

*RUN   7        : WW23_G-7                  CSCER048 CIOB2301    7
 MODEL          : CSCER048 - Wheat
 EXPERIMENT     : CIOB2301 WH ROOTS ANATOMY
 DATA PATH      : C:\DSSAT48\Wheat\
 TREATMENT  7   : WW23_G-7                  CSCER048


 CROP           : Wheat            CULTIVAR : ENTRY 7          ECOTYPE :CI0701
 STARTING DATE  : SEP  1 2022
 PLANTING DATE  : NOV 23 2022      PLANTS/m2 :   137.0    ROW SPACING :  20.cm
 WEATHER        : CIOB   2022
 SOIL           : CCENEB2301     TEXTURE : C     -   CIMMYT CENEB 710
 SOIL INIT COND : DEPTH:120cm EXTR. H2O: 82.8mm  NO3:484.0kg/ha  NH4:341.8kg/ha
 WATER BALANCE  : IRRIGATE ON REPORTED DATE(S)
 IRRIGATION     :      525 mm IN     9 APPLICATIONS
 NITROGEN BAL.  : SOIL-N & N-UPTAKE SIMULATION; NO N-FIXATION
 N-FERTILIZER   :      323 kg/ha IN     3 APPLICATIONS
 RESIDUE/MANURE : INITIAL :     0 kg/ha ;    2222 kg/ha IN     1 APPLICATIONS
 ENVIRONM. OPT. : DAYL=    0.00  SRAD=    0.00  TMAX=    0.00  TMIN=    0.00
                  RAIN=    0.00  CO2 =    0.00  DEW =    0.00  WIND=    0.00
 SIMULATION OPT : WATER   :Y  NITROGEN:Y  N-FIX:N  PHOSPH :N  PESTS  :N
                  PHOTO   :C  ET      :R  INFIL:S  HYDROL :R  SOM    :G
                  CO2 418ppm  NSWIT   :1  EVAP :R  SOIL   :2  STEMP  :D
 MANAGEMENT OPT : PLANTING:R  IRRIG   :R  FERT :R  RESIDUE:R  HARVEST:M
                  WEATHER :M  TILLAGE :Y

*SUMMARY OF SOIL AND GENETIC INPUT PARAMETERS

   SOIL LOWER UPPER   SAT  EXTR  INIT   ROOT   BULK     pH    NO3    NH4    ORG
  DEPTH LIMIT LIMIT    SW    SW    SW   DIST   DENS                          C
   cm   cm3/cm3    cm3/cm3    cm3/cm3         g/cm3         ugN/g  ugN/g     %
-------------------------------------------------------------------------------
  0-  5 0.143 0.204 0.268 0.061 0.172   1.00   1.35   8.50  29.00  29.00   1.08
  5- 15 0.143 0.204 0.268 0.061 0.172   1.00   1.35   8.50  29.00  29.00   1.08
 15- 30 0.143 0.204 0.268 0.061 0.172   1.00   1.35   8.50  29.00  29.00   1.08
 30- 45 0.166 0.234 0.274 0.068 0.225   0.41   1.58   8.50  27.00  16.00   0.80
 45- 60 0.166 0.234 0.274 0.068 0.225   0.41   1.58   8.50  27.00  16.00   0.80
 60- 90 0.155 0.227 0.276 0.072 0.207   0.22   1.50   7.90  53.00  33.00   0.87
 90-120 0.188 0.263 0.308 0.075 0.263   0.12   1.38   8.00   0.01   0.01   0.40

TOT-120  19.6  27.8  33.8   8.3  26.0  <--cm   -  kg/ha-->  484.0  341.8 137370
SOIL ALBEDO    : 0.13      EVAPORATION LIMIT : 6.00         MIN. FACTOR  : 1.00
RUNOFF CURVE # :61.00      DRAINAGE RATE     : 0.60         FERT. FACTOR : 1.00

 Wheat            CULTIVAR: 748117-ENTRY 7            ECOTYPE: CI0701
   P1V   P1D    P5    G1    G2    G3 PHINT
   2.0  53.2 553.6  22.6  43.0  8.00  90.6


*SIMULATED CROP AND SOIL STATUS AT MAIN DEVELOPMENT STAGES
  
 RUN NO.      7   ROOTS ANATOMY                                               

 ...... DATE ......  GROWTH STAGE BIOMASS   LEAF       CROP N      STRESS
 YEARDOY DOM MON DAP ............. kg/ha AREA NUMBER  kg/ha   %   H2O    N
 2022327  23 Nov   0 7 Sowing         0  0.00   0.0     0   0.0  0.00  0.00
 2022328  24 Nov   1 8 Germinate      0  0.00   0.0     0   0.0  0.00  0.00
 2022330  26 Nov   3 9 Emergence      0  0.00   0.0     0   0.0  0.00  0.00
 2023030  30 Jan  68 1 Term Spklt  2144  3.37  12.9   100   4.6  0.25  0.11
 2023048  17 Feb  86 2 End Veg     4273  5.79  16.0   141   3.3  0.06  0.00
 2023061   2 Mar  99 3 End Ear Gr  6577  4.81  16.0   138   2.1  0.00  0.00
 2023075  16 Mar 113 4 Beg Gr Fil  9823  3.80  16.0   137   1.4  0.11  0.00
 2023104  14 Apr 142 5 End Gr Fil 16375  0.75  16.0   187   1.1  0.15  0.00
 2023104  14 Apr 142 6 Harvest    16375  0.75  16.0   187   1.1  0.55  0.00
  

*MAIN GROWTH AND DEVELOPMENT VARIABLES

@     VARIABLE                             SIMULATED     MEASURED
      --------                             ---------     --------
      Emergence (DAP)                            3            7
      Anthesis (DAP)                           102          101
      Maturity (DAP)                           142          142
      Product wt (kg dm/ha;no loss)           6875         6650
      Product unit weight (g dm)             0.043        0.041
      Product number (no/m2)                 15988        16031
      Product number (no/group)               28.9        -99.0
      Product harvest index (ratio)           0.42         0.41
      Maximum leaf area index                  5.8          6.7
      Final leaf number (one axis)            16.0        -99.0
      Final shoot number (#/m2)                554          -99
      Canopy (tops) wt (kg dm/ha)            16375        16066
      Vegetative wt (kg dm/ha)                9500         9416
      Root wt (kg dm/ha)                      1010          -99
      Assimilate wt (kg dm/ha)               18488          -99
      Senesced wt (kg dm/ha)                   428          -99
      Reserves wt (kg dm/ha)                  4240          -99
      N uptake (kg/ha)                       209.0        -99.0
      N senesced (kg/ha)                       5.9        -99.0
      Above-ground N (kg/ha)                 186.8        -99.0
      Root N (kg/ha)                          17.0        -99.0
      Vegetative N (kg/ha)                    40.2        -99.0
      Product N (kg/ha)                      146.6        123.9
      Product N harvest index (ratio)         0.78       -99.00
      Product N (%)                            2.1          1.9
      Vegetative N (%)                         0.4        -99.0
      Leaf+stem wt,anthesis (kg dm/ha)        7187          -99
      Leaf+stem N,anthesis (kg/ha)           137.7        -99.0
      Leaf N,anthesis (%)                      3.0        -99.0

*ENVIRONMENTAL AND STRESS FACTORS

 |-----Development Phase------|-------------Environment--------------|----------------Stress-----------------|
                              |--------Average-------|---Cumulative--|         (0=Min, 1=Max Stress)         |
                         Time  Temp  Temp Solar Photop         Evapo |----Water---|--Nitrogen--|--Phosphorus-|
                         Span   Max   Min   Rad  [day]   Rain  Trans  Photo         Photo         Photo
                         days    °C    °C MJ/m2     hr     mm     mm  synth Growth ' synth Growth  synth Growth
--------------------------------------------------------------------------------------------------------------
 Germinate  - Term Spklt   65  26.2   7.0  14.4  11.37   10.0  102.6  0.249  0.346  0.108  0.108 -99.00 -99.00
 Term Spklt - End Veg      18  25.1   5.7  15.7  11.83    3.6   52.3  0.059  0.121  0.000  0.000 -99.00 -99.00
 End Veg    - End Ear Gr   13  23.4   8.5  15.6  12.18    8.7   39.6  0.000  0.000  0.000  0.000 -99.00 -99.00
 End Ear Gr - Beg Gr Fil   14  29.5   7.7  21.3  12.53    0.0   56.7  0.107  0.166  0.000  0.000 -99.00 -99.00
 Beg Gr Fil - End Gr Fil   29  29.0   8.8  23.5  13.12   65.8  111.9  0.153  0.196  0.000  0.000 -99.00 -99.00
  
 Germinate  - End Gr Fil  139  26.7   7.4  17.3  11.99   88.1  363.1  0.167  0.235  0.051  0.051 -99.00 -99.00
--------------------------------------------------------------------------------------------------------------


*RESOURCE PRODUCTIVITY

 Growing season length: 139 days 

 Precipitation during growth season         88.1 mm[rain]
   Dry Matter Productivity                 18.59 kg[DM]/m3[rain]          =  185.9 kg[DM]/ha per mm[rain]
   Yield Productivity                       7.80 kg[grain yield]/m3[rain] =   78.0 kg[yield]/ha per mm[rain]

 Evapotranspiration during growth season   363.1 mm[ET]
   Dry Matter Productivity                  4.51 kg[DM]/m3[ET]            =   45.1 kg[DM]/ha per mm[ET]
   Yield Productivity                       1.89 kg[grain yield]/m3[ET]   =   18.9 kg[yield]/ha per mm[ET]

 Transpiration during growth season        292.6 mm[EP]
   Dry Matter Productivity                  5.60 kg[DM]/m3[EP]            =   56.0 kg[DM]/ha per mm[EP]
   Yield Productivity                       2.35 kg[grain yield]/m3[EP]   =   23.5 kg[yield]/ha per mm[EP]

 Irrigation during growing season          525.1 mm[irrig]
   Dry Matter Productivity                  3.12 kg[DM]/m3[irrig]         =   31.2 kg[DM]/ha per mm[irrig]
   Yield Productivity                       1.31 kg[grain yield]/m3[irrig]=   13.1 kg[yield]/ha per mm[irrig]

 N applied during growing season           323.0 kg[N applied]/ha
   Dry Matter Productivity                  50.7 kg[DM]/kg[N applied]
   Yield Productivity                       21.3 kg[yield]/kg[N applied]

 N uptake during growing season            209.0 kg[N uptake]/ha
   Dry Matter Productivity                  78.4 kg[DM]/kg[N uptake]
   Yield Productivity                       32.9 kg[yield]/kg[N uptake]

--------------------------------------------------------------------------------------------------------------

          WHEAT YIELD :     6875 kg/ha    [Dry weight] 

**************************************************************************************************************
  

*DSSAT Cropping System Model Ver. 4.8.2.000 -release  AUG 22, 2025 13:14:18

*RUN   8        : WW23_G-8                  CSCER048 CIOB2301    8
 MODEL          : CSCER048 - Wheat
 EXPERIMENT     : CIOB2301 WH ROOTS ANATOMY
 DATA PATH      : C:\DSSAT48\Wheat\
 TREATMENT  8   : WW23_G-8                  CSCER048


 CROP           : Wheat            CULTIVAR : ENTRY 8          ECOTYPE :CI0700
 STARTING DATE  : SEP  1 2022
 PLANTING DATE  : NOV 23 2022      PLANTS/m2 :   137.0    ROW SPACING :  20.cm
 WEATHER        : CIOB   2022
 SOIL           : CCENEB2301     TEXTURE : C     -   CIMMYT CENEB 710
 SOIL INIT COND : DEPTH:120cm EXTR. H2O: 82.8mm  NO3:484.0kg/ha  NH4:341.8kg/ha
 WATER BALANCE  : IRRIGATE ON REPORTED DATE(S)
 IRRIGATION     :      525 mm IN     9 APPLICATIONS
 NITROGEN BAL.  : SOIL-N & N-UPTAKE SIMULATION; NO N-FIXATION
 N-FERTILIZER   :      323 kg/ha IN     3 APPLICATIONS
 RESIDUE/MANURE : INITIAL :     0 kg/ha ;    2222 kg/ha IN     1 APPLICATIONS
 ENVIRONM. OPT. : DAYL=    0.00  SRAD=    0.00  TMAX=    0.00  TMIN=    0.00
                  RAIN=    0.00  CO2 =    0.00  DEW =    0.00  WIND=    0.00
 SIMULATION OPT : WATER   :Y  NITROGEN:Y  N-FIX:N  PHOSPH :N  PESTS  :N
                  PHOTO   :C  ET      :R  INFIL:S  HYDROL :R  SOM    :G
                  CO2 418ppm  NSWIT   :1  EVAP :R  SOIL   :2  STEMP  :D
 MANAGEMENT OPT : PLANTING:R  IRRIG   :R  FERT :R  RESIDUE:R  HARVEST:M
                  WEATHER :M  TILLAGE :Y

*SUMMARY OF SOIL AND GENETIC INPUT PARAMETERS

   SOIL LOWER UPPER   SAT  EXTR  INIT   ROOT   BULK     pH    NO3    NH4    ORG
  DEPTH LIMIT LIMIT    SW    SW    SW   DIST   DENS                          C
   cm   cm3/cm3    cm3/cm3    cm3/cm3         g/cm3         ugN/g  ugN/g     %
-------------------------------------------------------------------------------
  0-  5 0.143 0.204 0.268 0.061 0.172   1.00   1.35   8.50  29.00  29.00   1.08
  5- 15 0.143 0.204 0.268 0.061 0.172   1.00   1.35   8.50  29.00  29.00   1.08
 15- 30 0.143 0.204 0.268 0.061 0.172   1.00   1.35   8.50  29.00  29.00   1.08
 30- 45 0.166 0.234 0.274 0.068 0.225   0.41   1.58   8.50  27.00  16.00   0.80
 45- 60 0.166 0.234 0.274 0.068 0.225   0.41   1.58   8.50  27.00  16.00   0.80
 60- 90 0.155 0.227 0.276 0.072 0.207   0.22   1.50   7.90  53.00  33.00   0.87
 90-120 0.188 0.263 0.308 0.075 0.263   0.12   1.38   8.00   0.01   0.01   0.40

TOT-120  19.6  27.8  33.8   8.3  26.0  <--cm   -  kg/ha-->  484.0  341.8 137370
SOIL ALBEDO    : 0.13      EVAPORATION LIMIT : 6.00         MIN. FACTOR  : 1.00
RUNOFF CURVE # :61.00      DRAINAGE RATE     : 0.60         FERT. FACTOR : 1.00

 Wheat            CULTIVAR: 748118-ENTRY 8            ECOTYPE: CI0700
   P1V   P1D    P5    G1    G2    G3 PHINT
   2.0  42.8 581.2  20.0  39.1  0.50 103.6


*SIMULATED CROP AND SOIL STATUS AT MAIN DEVELOPMENT STAGES
  
 RUN NO.      8   ROOTS ANATOMY                                               

 ...... DATE ......  GROWTH STAGE BIOMASS   LEAF       CROP N      STRESS
 YEARDOY DOM MON DAP ............. kg/ha AREA NUMBER  kg/ha   %   H2O    N
 2022327  23 Nov   0 7 Sowing         0  0.00   0.0     0   0.0  0.00  0.00
 2022328  24 Nov   1 8 Germinate      0  0.00   0.0     0   0.0  0.00  0.00
 2022330  26 Nov   3 9 Emergence      0  0.00   0.0     0   0.0  0.00  0.00
 2023031  31 Jan  69 1 Term Spklt  2185  3.62  11.6   104   4.7  0.24  0.07
 2023049  18 Feb  87 2 End Veg     3962  5.90  14.3   135   3.4  0.03  0.00
 2023062   3 Mar 100 3 End Ear Gr  7046  5.29  14.3   131   1.9  0.00  0.00
 2023076  17 Mar 114 4 Beg Gr Fil 11105  4.65  14.3   129   1.2  0.09  0.00
 2023107  17 Apr 145 5 End Gr Fil 19674  1.49  14.3   152   0.8  0.27  0.00
 2023107  17 Apr 145 6 Harvest    19674  1.49  14.3   152   0.8  0.81  0.00
  

*MAIN GROWTH AND DEVELOPMENT VARIABLES

@     VARIABLE                             SIMULATED     MEASURED
      --------                             ---------     --------
      Emergence (DAP)                            3            7
      Anthesis (DAP)                           104          104
      Maturity (DAP)                           145          146
      Product wt (kg dm/ha;no loss)           5622         6393
      Product unit weight (g dm)             0.035        0.041
      Product number (no/m2)                 15891        15446
      Product number (no/group)                6.6        -99.0
      Product harvest index (ratio)           0.29         0.31
      Maximum leaf area index                  5.9          5.7
      Final leaf number (one axis)            14.3        -99.0
      Final shoot number (#/m2)               2417          -99
      Canopy (tops) wt (kg dm/ha)            19674        20909
      Vegetative wt (kg dm/ha)               14052        14516
      Root wt (kg dm/ha)                      1083          -99
      Assimilate wt (kg dm/ha)               21874          -99
      Senesced wt (kg dm/ha)                   392          -99
      Reserves wt (kg dm/ha)                  7994          -99
      N uptake (kg/ha)                       174.9        -99.0
      N senesced (kg/ha)                       5.4        -99.0
      Above-ground N (kg/ha)                 152.1        -99.0
      Root N (kg/ha)                          18.2        -99.0
      Vegetative N (kg/ha)                    44.0        -99.0
      Product N (kg/ha)                      108.1        141.9
      Product N harvest index (ratio)         0.71       -99.00
      Product N (%)                            1.9          2.2
      Vegetative N (%)                         0.3        -99.0
      Leaf+stem wt,anthesis (kg dm/ha)        7872          -99
      Leaf+stem N,anthesis (kg/ha)           129.7        -99.0
      Leaf N,anthesis (%)                      3.0        -99.0

*ENVIRONMENTAL AND STRESS FACTORS

 |-----Development Phase------|-------------Environment--------------|----------------Stress-----------------|
                              |--------Average-------|---Cumulative--|         (0=Min, 1=Max Stress)         |
                         Time  Temp  Temp Solar Photop         Evapo |----Water---|--Nitrogen--|--Phosphorus-|
                         Span   Max   Min   Rad  [day]   Rain  Trans  Photo         Photo         Photo
                         days    °C    °C MJ/m2     hr     mm     mm  synth Growth ' synth Growth  synth Growth
--------------------------------------------------------------------------------------------------------------
 Germinate  - Term Spklt   66  26.1   7.0  14.4  11.37   10.0  113.2  0.241  0.340  0.065  0.065 -99.00 -99.00
 Term Spklt - End Veg      18  25.1   6.1  15.5  11.85   11.8   53.0  0.033  0.061  0.000  0.000 -99.00 -99.00
 End Veg    - End Ear Gr   13  23.5   8.1  16.3  12.20    0.5   41.5  0.000  0.012  0.000  0.000 -99.00 -99.00
 End Ear Gr - Beg Gr Fil   14  29.5   8.4  20.3  12.55   13.7   54.8  0.094  0.139  0.000  0.000 -99.00 -99.00
 Beg Gr Fil - End Gr Fil   31  29.3   8.7  24.3  13.18   52.1  114.4  0.273  0.312  0.000  0.000 -99.00 -99.00
  
 Germinate  - End Gr Fil  142  26.8   7.5  17.5  12.02   88.1  376.9  0.185  0.248  0.030  0.030 -99.00 -99.00
--------------------------------------------------------------------------------------------------------------


*RESOURCE PRODUCTIVITY

 Growing season length: 142 days 

 Precipitation during growth season         88.1 mm[rain]
   Dry Matter Productivity                 22.33 kg[DM]/m3[rain]          =  223.3 kg[DM]/ha per mm[rain]
   Yield Productivity                       6.38 kg[grain yield]/m3[rain] =   63.8 kg[yield]/ha per mm[rain]

 Evapotranspiration during growth season   376.9 mm[ET]
   Dry Matter Productivity                  5.22 kg[DM]/m3[ET]            =   52.2 kg[DM]/ha per mm[ET]
   Yield Productivity                       1.49 kg[grain yield]/m3[ET]   =   14.9 kg[yield]/ha per mm[ET]

 Transpiration during growth season        321.6 mm[EP]
   Dry Matter Productivity                  6.12 kg[DM]/m3[EP]            =   61.2 kg[DM]/ha per mm[EP]
   Yield Productivity                       1.75 kg[grain yield]/m3[EP]   =   17.5 kg[yield]/ha per mm[EP]

 Irrigation during growing season          525.1 mm[irrig]
   Dry Matter Productivity                  3.75 kg[DM]/m3[irrig]         =   37.5 kg[DM]/ha per mm[irrig]
   Yield Productivity                       1.07 kg[grain yield]/m3[irrig]=   10.7 kg[yield]/ha per mm[irrig]

 N applied during growing season           323.0 kg[N applied]/ha
   Dry Matter Productivity                  60.9 kg[DM]/kg[N applied]
   Yield Productivity                       17.4 kg[yield]/kg[N applied]

 N uptake during growing season            174.9 kg[N uptake]/ha
   Dry Matter Productivity                 112.5 kg[DM]/kg[N uptake]
   Yield Productivity                       32.1 kg[yield]/kg[N uptake]

--------------------------------------------------------------------------------------------------------------

          WHEAT YIELD :     5622 kg/ha    [Dry weight] 

**************************************************************************************************************
  

*DSSAT Cropping System Model Ver. 4.8.2.000 -release  AUG 22, 2025 13:14:18

*RUN   9        : WW23_G-9                  CSCER048 CIOB2301    9
 MODEL          : CSCER048 - Wheat
 EXPERIMENT     : CIOB2301 WH ROOTS ANATOMY
 DATA PATH      : C:\DSSAT48\Wheat\
 TREATMENT  9   : WW23_G-9                  CSCER048


 CROP           : Wheat            CULTIVAR : ENTRY 9          ECOTYPE :CI0700
 STARTING DATE  : SEP  1 2022
 PLANTING DATE  : NOV 23 2022      PLANTS/m2 :   137.0    ROW SPACING :  20.cm
 WEATHER        : CIOB   2022
 SOIL           : CCENEB2301     TEXTURE : C     -   CIMMYT CENEB 710
 SOIL INIT COND : DEPTH:120cm EXTR. H2O: 82.8mm  NO3:484.0kg/ha  NH4:341.8kg/ha
 WATER BALANCE  : IRRIGATE ON REPORTED DATE(S)
 IRRIGATION     :      525 mm IN     9 APPLICATIONS
 NITROGEN BAL.  : SOIL-N & N-UPTAKE SIMULATION; NO N-FIXATION
 N-FERTILIZER   :      323 kg/ha IN     3 APPLICATIONS
 RESIDUE/MANURE : INITIAL :     0 kg/ha ;    2222 kg/ha IN     1 APPLICATIONS
 ENVIRONM. OPT. : DAYL=    0.00  SRAD=    0.00  TMAX=    0.00  TMIN=    0.00
                  RAIN=    0.00  CO2 =    0.00  DEW =    0.00  WIND=    0.00
 SIMULATION OPT : WATER   :Y  NITROGEN:Y  N-FIX:N  PHOSPH :N  PESTS  :N
                  PHOTO   :C  ET      :R  INFIL:S  HYDROL :R  SOM    :G
                  CO2 418ppm  NSWIT   :1  EVAP :R  SOIL   :2  STEMP  :D
 MANAGEMENT OPT : PLANTING:R  IRRIG   :R  FERT :R  RESIDUE:R  HARVEST:M
                  WEATHER :M  TILLAGE :Y

*SUMMARY OF SOIL AND GENETIC INPUT PARAMETERS

   SOIL LOWER UPPER   SAT  EXTR  INIT   ROOT   BULK     pH    NO3    NH4    ORG
  DEPTH LIMIT LIMIT    SW    SW    SW   DIST   DENS                          C
   cm   cm3/cm3    cm3/cm3    cm3/cm3         g/cm3         ugN/g  ugN/g     %
-------------------------------------------------------------------------------
  0-  5 0.143 0.204 0.268 0.061 0.172   1.00   1.35   8.50  29.00  29.00   1.08
  5- 15 0.143 0.204 0.268 0.061 0.172   1.00   1.35   8.50  29.00  29.00   1.08
 15- 30 0.143 0.204 0.268 0.061 0.172   1.00   1.35   8.50  29.00  29.00   1.08
 30- 45 0.166 0.234 0.274 0.068 0.225   0.41   1.58   8.50  27.00  16.00   0.80
 45- 60 0.166 0.234 0.274 0.068 0.225   0.41   1.58   8.50  27.00  16.00   0.80
 60- 90 0.155 0.227 0.276 0.072 0.207   0.22   1.50   7.90  53.00  33.00   0.87
 90-120 0.188 0.263 0.308 0.075 0.263   0.12   1.38   8.00   0.01   0.01   0.40

TOT-120  19.6  27.8  33.8   8.3  26.0  <--cm   -  kg/ha-->  484.0  341.8 137370
SOIL ALBEDO    : 0.13      EVAPORATION LIMIT : 6.00         MIN. FACTOR  : 1.00
RUNOFF CURVE # :61.00      DRAINAGE RATE     : 0.60         FERT. FACTOR : 1.00

 Wheat            CULTIVAR: 474804-ENTRY 9            ECOTYPE: CI0700
   P1V   P1D    P5    G1    G2    G3 PHINT
   2.0  34.9 642.0  19.6  48.5  0.50 115.5


*SIMULATED CROP AND SOIL STATUS AT MAIN DEVELOPMENT STAGES
  
 RUN NO.      9   ROOTS ANATOMY                                               

 ...... DATE ......  GROWTH STAGE BIOMASS   LEAF       CROP N      STRESS
 YEARDOY DOM MON DAP ............. kg/ha AREA NUMBER  kg/ha   %   H2O    N
 2022327  23 Nov   0 7 Sowing         0  0.00   0.0     0   0.0  0.00  0.00
 2022328  24 Nov   1 8 Germinate      0  0.00   0.0     0   0.0  0.00  0.00
 2022330  26 Nov   3 9 Emergence      0  0.00   0.0     0   0.0  0.00  0.00
 2023028  28 Jan  66 1 Term Spklt  1994  3.48  10.1    95   4.8  0.26  0.06
 2023046  15 Feb  84 2 End Veg     3802  5.85  12.5   129   3.4  0.04  0.00
 2023059  28 Feb  97 3 End Ear Gr  6808  5.24  12.5   125   1.8  0.00  0.00
 2023074  15 Mar 112 4 Beg Gr Fil 11227  4.60  12.5   123   1.1  0.09  0.00
 2023107  17 Apr 145 5 End Gr Fil 20167  1.66  12.5   171   0.8  0.26  0.00
 2023107  17 Apr 145 6 Harvest    20167  1.66  12.5   171   0.8  0.81  0.00
  

*MAIN GROWTH AND DEVELOPMENT VARIABLES

@     VARIABLE                             SIMULATED     MEASURED
      --------                             ---------     --------
      Emergence (DAP)                            3            7
      Anthesis (DAP)                           101          101
      Maturity (DAP)                           145          145
      Product wt (kg dm/ha;no loss)           6588         6560
      Product unit weight (g dm)             0.043        0.043
      Product number (no/m2)                 15433        15412
      Product number (no/group)                7.8        -99.0
      Product harvest index (ratio)           0.33         0.33
      Maximum leaf area index                  5.8          5.8
      Final leaf number (one axis)            12.5        -99.0
      Final shoot number (#/m2)               1971          -99
      Canopy (tops) wt (kg dm/ha)            20167        20154
      Vegetative wt (kg dm/ha)               13579        13594
      Root wt (kg dm/ha)                      1054          -99
      Assimilate wt (kg dm/ha)               22233          -99
      Senesced wt (kg dm/ha)                   307          -99
      Reserves wt (kg dm/ha)                  7576          -99
      N uptake (kg/ha)                       191.7        -99.0
      N senesced (kg/ha)                       4.2        -99.0
      Above-ground N (kg/ha)                 170.6        -99.0
      Root N (kg/ha)                          17.7        -99.0
      Vegetative N (kg/ha)                    44.0        -99.0
      Product N (kg/ha)                      126.6        131.8
      Product N harvest index (ratio)         0.74       -99.00
      Product N (%)                            1.9          2.0
      Vegetative N (%)                         0.3        -99.0
[...]
   Dry Matter Productivity                  4.54 kg[DM]/m3[rain]          =   45.4 kg[DM]/ha per mm[rain]
   Yield Productivity                       1.49 kg[grain yield]/m3[rain] =   14.9 kg[yield]/ha per mm[rain]

 Evapotranspiration during growth season   106.4 mm[ET]
   Dry Matter Productivity                  3.76 kg[DM]/m3[ET]            =   37.6 kg[DM]/ha per mm[ET]
   Yield Productivity                       1.24 kg[grain yield]/m3[ET]   =   12.4 kg[yield]/ha per mm[ET]

 Transpiration during growth season         70.3 mm[EP]
   Dry Matter Productivity                  5.69 kg[DM]/m3[EP]            =   56.9 kg[DM]/ha per mm[EP]
   Yield Productivity                       1.87 kg[grain yield]/m3[EP]   =   18.7 kg[yield]/ha per mm[EP]

 Irrigation during growing season          120.0 mm[irrig]
   Dry Matter Productivity                  3.33 kg[DM]/m3[irrig]         =   33.3 kg[DM]/ha per mm[irrig]
   Yield Productivity                       1.10 kg[grain yield]/m3[irrig]=   11.0 kg[yield]/ha per mm[irrig]

 N applied during growing season           173.0 kg[N applied]/ha
   Dry Matter Productivity                  23.1 kg[DM]/kg[N applied]
   Yield Productivity                        7.6 kg[yield]/kg[N applied]

 N uptake during growing season             42.5 kg[N uptake]/ha
   Dry Matter Productivity                  94.1 kg[DM]/kg[N uptake]
   Yield Productivity                       30.9 kg[yield]/kg[N uptake]

--------------------------------------------------------------------------------------------------------------

          WHEAT YIELD :     1315 kg/ha    [Dry weight] 

**************************************************************************************************************
  

*DSSAT Cropping System Model Ver. 4.8.2.000 -release  AUG 22, 2025 13:14:21

*RUN  69        : DR23_G-13                 CSCER048 CIOB2302   13
 MODEL          : CSCER048 - Wheat
 EXPERIMENT     : CIOB2302 WH ROOTS ANATOMY DROUGHT
 DATA PATH      : C:\DSSAT48\Wheat\
 TREATMENT 13   : DR23_G-13                 CSCER048


 CROP           : Wheat            CULTIVAR : ENTRY 13         ECOTYPE :CI0701
 STARTING DATE  : SEP  1 2022
 PLANTING DATE  : DEC  3 2022      PLANTS/m2 :   150.0    ROW SPACING :  36.cm
 WEATHER        : CIOB   2022
 SOIL           : CCENEB2301     TEXTURE : C     -   CIMMYT CENEB 710
 SOIL INIT COND : DEPTH:120cm EXTR. H2O: 82.8mm  NO3:252.3kg/ha  NH4:205.5kg/ha
 WATER BALANCE  : IRRIGATE ON REPORTED DATE(S)
 IRRIGATION     :      120 mm IN     1 APPLICATIONS
 NITROGEN BAL.  : SOIL-N & N-UPTAKE SIMULATION; NO N-FIXATION
 N-FERTILIZER   :      173 kg/ha IN     2 APPLICATIONS
 RESIDUE/MANURE : INITIAL :     0 kg/ha ;    2222 kg/ha IN     1 APPLICATIONS
 ENVIRONM. OPT. : DAYL=    0.00  SRAD=    0.00  TMAX=    0.00  TMIN=    0.00
                  RAIN=    0.00  CO2 =    0.00  DEW =    0.00  WIND=    0.00
 SIMULATION OPT : WATER   :Y  NITROGEN:Y  N-FIX:N  PHOSPH :N  PESTS  :N
                  PHOTO   :C  ET      :R  INFIL:S  HYDROL :R  SOM    :G
                  CO2 418ppm  NSWIT   :1  EVAP :R  SOIL   :2  STEMP  :D
 MANAGEMENT OPT : PLANTING:R  IRRIG   :R  FERT :R  RESIDUE:R  HARVEST:M
                  WEATHER :M  TILLAGE :Y

*SUMMARY OF SOIL AND GENETIC INPUT PARAMETERS

   SOIL LOWER UPPER   SAT  EXTR  INIT   ROOT   BULK     pH    NO3    NH4    ORG
  DEPTH LIMIT LIMIT    SW    SW    SW   DIST   DENS                          C
   cm   cm3/cm3    cm3/cm3    cm3/cm3         g/cm3         ugN/g  ugN/g     %
-------------------------------------------------------------------------------
  0-  5 0.143 0.204 0.268 0.061 0.204   1.00   1.35   8.80  19.00  12.00   1.10
  5- 15 0.143 0.204 0.268 0.061 0.204   1.00   1.35   8.80  19.00  12.00   1.10
 15- 30 0.143 0.204 0.268 0.061 0.204   1.00   1.35   8.80  19.00  12.00   1.10
 30- 45 0.166 0.234 0.274 0.068 0.230   0.41   1.58   8.50  18.00  16.00   0.40
 45- 60 0.166 0.234 0.274 0.068 0.230   0.41   1.58   8.50  18.00  16.00   0.40
 60- 90 0.155 0.227 0.276 0.072 0.230   0.22   1.50   8.50  20.00  18.00   0.40
 90-120 0.188 0.263 0.308 0.075 0.263   0.12   1.38   8.00   0.01   0.01   0.40

TOT-120  19.6  27.8  33.8   8.3  27.8  <--cm   -  kg/ha-->  252.3  205.5  98070
SOIL ALBEDO    : 0.13      EVAPORATION LIMIT : 6.00         MIN. FACTOR  : 1.00
RUNOFF CURVE # :61.00      DRAINAGE RATE     : 0.60         FERT. FACTOR : 1.00

 Wheat            CULTIVAR: 542933-ENTRY 13           ECOTYPE: CI0701
   P1V   P1D    P5    G1    G2    G3 PHINT
   2.0  41.3 530.7  19.3  54.8  8.00 111.9


*SIMULATED CROP AND SOIL STATUS AT MAIN DEVELOPMENT STAGES
  
 RUN NO.     69   ROOTS ANATOMY DROUGHT                                       

 ...... DATE ......  GROWTH STAGE BIOMASS   LEAF       CROP N      STRESS
 YEARDOY DOM MON DAP ............. kg/ha AREA NUMBER  kg/ha   %   H2O    N
 2022337   3 Dec   0 7 Sowing         0  0.00   0.0     0   0.0  0.00  0.00
 2022338   4 Dec   1 8 Germinate      0  0.00   0.0     0   0.0  0.00  0.00
 2022339   5 Dec   2 9 Emergence      0  0.00   0.0     0   0.0  0.00  0.00
 2023031  31 Jan  59 1 Term Spklt   548  0.92   9.2    25   4.6  0.56  0.11
 2023049  18 Feb  77 2 End Veg      883  1.25  11.7    28   3.2  0.63  0.00
 2023062   3 Mar  90 3 End Ear Gr  1354  0.85  11.7    27   2.0  0.57  0.00
 2023076  17 Mar 104 4 Beg Gr Fil  1723  0.56  11.7    27   1.6  0.72  0.00
 2023104  14 Apr 132 5 End Gr Fil  3934  0.15  11.7    38   1.0  0.13  0.00
 2023104  14 Apr 132 6 Harvest     3934  0.15  11.7    38   1.0  0.10  0.00
  

*MAIN GROWTH AND DEVELOPMENT VARIABLES

@     VARIABLE                             SIMULATED     MEASURED
      --------                             ---------     --------
      Emergence (DAP)                            2            6
      Anthesis (DAP)                            93           86
      Maturity (DAP)                           132          118
      Product wt (kg dm/ha;no loss)           1405         3437
      Product unit weight (g dm)             0.055        0.039
      Product number (no/m2)                  2563         8856
      Product number (no/group)                8.3        -99.0
      Product harvest index (ratio)           0.36         0.41
      Maximum leaf area index                  1.2          4.6
      Final leaf number (one axis)            11.7        -99.0
      Final shoot number (#/m2)                309          -99
      Canopy (tops) wt (kg dm/ha)             3934         8377
      Vegetative wt (kg dm/ha)                2529         4940
      Root wt (kg dm/ha)                       315          -99
      Assimilate wt (kg dm/ha)                4644          -99
      Senesced wt (kg dm/ha)                   239          -99
      Reserves wt (kg dm/ha)                  1547          -99
      N uptake (kg/ha)                        45.0        -99.0
      N senesced (kg/ha)                       3.3        -99.0
      Above-ground N (kg/ha)                  37.9        -99.0
      Root N (kg/ha)                           5.3        -99.0
      Vegetative N (kg/ha)                     7.3        -99.0
      Product N (kg/ha)                       30.5         68.3
      Product N harvest index (ratio)         0.81       -99.00
      Product N (%)                            2.2          2.0
      Vegetative N (%)                         0.3        -99.0
      Leaf+stem wt,anthesis (kg dm/ha)        1441          -99
      Leaf+stem N,anthesis (kg/ha)            26.8        -99.0
      Leaf N,anthesis (%)                      3.0        -99.0

*ENVIRONMENTAL AND STRESS FACTORS

 |-----Development Phase------|-------------Environment--------------|----------------Stress-----------------|
                              |--------Average-------|---Cumulative--|         (0=Min, 1=Max Stress)         |
                         Time  Temp  Temp Solar Photop         Evapo |----Water---|--Nitrogen--|--Phosphorus-|
                         Span   Max   Min   Rad  [day]   Rain  Trans  Photo         Photo         Photo
                         days    °C    °C MJ/m2     hr     mm     mm  synth Growth ' synth Growth  synth Growth
--------------------------------------------------------------------------------------------------------------
 Germinate  - Term Spklt   57  25.6   6.5  14.5  11.37   10.0   30.1  0.555  0.644  0.109  0.109 -99.00 -99.00
 Term Spklt - End Veg      18  25.1   6.1  15.5  11.85   11.8   13.6  0.633  0.717  0.000  0.000 -99.00 -99.00
 End Veg    - End Ear Gr   13  23.5   8.1  16.3  12.20    0.5   13.7  0.569  0.668  0.000  0.000 -99.00 -99.00
 End Ear Gr - Beg Gr Fil   14  29.5   8.4  20.3  12.55   13.7    6.2  0.719  0.784  0.000  0.000 -99.00 -99.00
 Beg Gr Fil - End Gr Fil   28  29.1   8.6  24.0  13.14   52.1   41.9  0.126  0.222  0.000  0.000 -99.00 -99.00
  
 Germinate  - End Gr Fil  130  26.5   7.2  17.5  12.03   88.1  105.5  0.493  0.581  0.048  0.048 -99.00 -99.00
--------------------------------------------------------------------------------------------------------------


*RESOURCE PRODUCTIVITY

 Growing season length: 130 days 

 Precipitation during growth season         88.1 mm[rain]
   Dry Matter Productivity                  4.46 kg[DM]/m3[rain]          =   44.6 kg[DM]/ha per mm[rain]
   Yield Productivity                       1.59 kg[grain yield]/m3[rain] =   15.9 kg[yield]/ha per mm[rain]

 Evapotranspiration during growth season   105.5 mm[ET]
   Dry Matter Productivity                  3.73 kg[DM]/m3[ET]            =   37.3 kg[DM]/ha per mm[ET]
   Yield Productivity                       1.33 kg[grain yield]/m3[ET]   =   13.3 kg[yield]/ha per mm[ET]

 Transpiration during growth season         69.3 mm[EP]
   Dry Matter Productivity                  5.68 kg[DM]/m3[EP]            =   56.8 kg[DM]/ha per mm[EP]
   Yield Productivity                       2.03 kg[grain yield]/m3[EP]   =   20.3 kg[yield]/ha per mm[EP]

 Irrigation during growing season          120.0 mm[irrig]
   Dry Matter Productivity                  3.28 kg[DM]/m3[irrig]         =   32.8 kg[DM]/ha per mm[irrig]
   Yield Productivity                       1.17 kg[grain yield]/m3[irrig]=   11.7 kg[yield]/ha per mm[irrig]

 N applied during growing season           173.0 kg[N applied]/ha
   Dry Matter Productivity                  22.7 kg[DM]/kg[N applied]
   Yield Productivity                        8.1 kg[yield]/kg[N applied]

 N uptake during growing season             45.0 kg[N uptake]/ha
   Dry Matter Productivity                  87.4 kg[DM]/kg[N uptake]
   Yield Productivity                       31.2 kg[yield]/kg[N uptake]

--------------------------------------------------------------------------------------------------------------

          WHEAT YIELD :     1405 kg/ha    [Dry weight] 

**************************************************************************************************************
  

*DSSAT Cropping System Model Ver. 4.8.2.000 -release  AUG 22, 2025 13:14:21

*RUN  70        : DR23_G-14                 CSCER048 CIOB2302   14
 MODEL          : CSCER048 - Wheat
 EXPERIMENT     : CIOB2302 WH ROOTS ANATOMY DROUGHT
 DATA PATH      : C:\DSSAT48\Wheat\
 TREATMENT 14   : DR23_G-14                 CSCER048


 CROP           : Wheat            CULTIVAR : ENTRY 14         ECOTYPE :CI0701
 STARTING DATE  : SEP  1 2022
 PLANTING DATE  : DEC  3 2022      PLANTS/m2 :   150.0    ROW SPACING :  36.cm
 WEATHER        : CIOB   2022
 SOIL           : CCENEB2301     TEXTURE : C     -   CIMMYT CENEB 710
 SOIL INIT COND : DEPTH:120cm EXTR. H2O: 82.8mm  NO3:252.3kg/ha  NH4:205.5kg/ha
 WATER BALANCE  : IRRIGATE ON REPORTED DATE(S)
 IRRIGATION     :      120 mm IN     1 APPLICATIONS
 NITROGEN BAL.  : SOIL-N & N-UPTAKE SIMULATION; NO N-FIXATION
 N-FERTILIZER   :      173 kg/ha IN     2 APPLICATIONS
 RESIDUE/MANURE : INITIAL :     0 kg/ha ;    2222 kg/ha IN     1 APPLICATIONS
 ENVIRONM. OPT. : DAYL=    0.00  SRAD=    0.00  TMAX=    0.00  TMIN=    0.00
                  RAIN=    0.00  CO2 =    0.00  DEW =    0.00  WIND=    0.00
 SIMULATION OPT : WATER   :Y  NITROGEN:Y  N-FIX:N  PHOSPH :N  PESTS  :N
                  PHOTO   :C  ET      :R  INFIL:S  HYDROL :R  SOM    :G
                  CO2 418ppm  NSWIT   :1  EVAP :R  SOIL   :2  STEMP  :D
 MANAGEMENT OPT : PLANTING:R  IRRIG   :R  FERT :R  RESIDUE:R  HARVEST:M
                  WEATHER :M  TILLAGE :Y

*SUMMARY OF SOIL AND GENETIC INPUT PARAMETERS

   SOIL LOWER UPPER   SAT  EXTR  INIT   ROOT   BULK     pH    NO3    NH4    ORG
  DEPTH LIMIT LIMIT    SW    SW    SW   DIST   DENS                          C
   cm   cm3/cm3    cm3/cm3    cm3/cm3         g/cm3         ugN/g  ugN/g     %
-------------------------------------------------------------------------------
  0-  5 0.143 0.204 0.268 0.061 0.204   1.00   1.35   8.80  19.00  12.00   1.10
  5- 15 0.143 0.204 0.268 0.061 0.204   1.00   1.35   8.80  19.00  12.00   1.10
 15- 30 0.143 0.204 0.268 0.061 0.204   1.00   1.35   8.80  19.00  12.00   1.10
 30- 45 0.166 0.234 0.274 0.068 0.230   0.41   1.58   8.50  18.00  16.00   0.40
 45- 60 0.166 0.234 0.274 0.068 0.230   0.41   1.58   8.50  18.00  16.00   0.40
 60- 90 0.155 0.227 0.276 0.072 0.230   0.22   1.50   8.50  20.00  18.00   0.40
 90-120 0.188 0.263 0.308 0.075 0.263   0.12   1.38   8.00   0.01   0.01   0.40

TOT-120  19.6  27.8  33.8   8.3  27.8  <--cm   -  kg/ha-->  252.3  205.5  98070
SOIL ALBEDO    : 0.13      EVAPORATION LIMIT : 6.00         MIN. FACTOR  : 1.00
RUNOFF CURVE # :61.00      DRAINAGE RATE     : 0.60         FERT. FACTOR : 1.00

 Wheat            CULTIVAR: 589328-ENTRY 14           ECOTYPE: CI0701
   P1V   P1D    P5    G1    G2    G3 PHINT
   2.0  35.1 550.9  26.0  44.0  8.00 150.0


*SIMULATED CROP AND SOIL STATUS AT MAIN DEVELOPMENT STAGES
  
 RUN NO.     70   ROOTS ANATOMY DROUGHT                                       

 ...... DATE ......  GROWTH STAGE BIOMASS   LEAF       CROP N      STRESS
 YEARDOY DOM MON DAP ............. kg/ha AREA NUMBER  kg/ha   %   H2O    N
 2022337   3 Dec   0 7 Sowing         0  0.00   0.0     0   0.0  0.00  0.00
 2022338   4 Dec   1 8 Germinate      0  0.00   0.0     0   0.0  0.00  0.00
 2022339   5 Dec   2 9 Emergence      0  0.00   0.0     0   0.0  0.00  0.00
 2023028  28 Jan  56 1 Term Spklt   515  0.93   6.8    24   4.7  0.57  0.11
 2023046  15 Feb  74 2 End Veg      860  1.32   8.7    28   3.2  0.65  0.00
 2023059  28 Feb  87 3 End Ear Gr  1324  0.89   8.7    27   2.0  0.61  0.00
 2023074  15 Mar 102 4 Beg Gr Fil  1736  0.57   8.7    27   1.5  0.71  0.00
 2023103  13 Apr 131 5 End Gr Fil  3936  0.17   8.7    40   1.0  0.15  0.00
 2023103  13 Apr 131 6 Harvest     3936  0.17   8.7    40   1.0  0.02  0.00
  

*MAIN GROWTH AND DEVELOPMENT VARIABLES

@     VARIABLE                             SIMULATED     MEASURED
      --------                             ---------     --------
      Emergence (DAP)                            2            6
      Anthesis (DAP)                            90           83
      Maturity (DAP)                           131          114
      Product wt (kg dm/ha;no loss)           1524         3107
      Product unit weight (g dm)             0.044        0.034
      Product number (no/m2)                  3464         9175
      Product number (no/group)               11.8        -99.0
      Product harvest index (ratio)           0.39         0.44
      Maximum leaf area index                  1.3          4.3
      Final leaf number (one axis)             8.7        -99.0
      Final shoot number (#/m2)                294          -99
      Canopy (tops) wt (kg dm/ha)             3936         7086
      Vegetative wt (kg dm/ha)                2411         3979
      Root wt (kg dm/ha)                       307          -99
      Assimilate wt (kg dm/ha)                4591          -99
      Senesced wt (kg dm/ha)                   197          -99
      Reserves wt (kg dm/ha)                  1413          -99
      N uptake (kg/ha)                        46.7        -99.0
      N senesced (kg/ha)                       2.7        -99.0
      Above-ground N (kg/ha)                  40.3        -99.0
      Root N (kg/ha)                           5.2        -99.0
      Vegetative N (kg/ha)                     7.4        -99.0
      Product N (kg/ha)                       32.9         59.1
      Product N harvest index (ratio)         0.82       -99.00
      Product N (%)                            2.2          1.9
      Vegetative N (%)                         0.3        -99.0
      Leaf+stem wt,anthesis (kg dm/ha)        1420          -99
      Leaf+stem N,anthesis (kg/ha)            26.7        -99.0
      Leaf N,anthesis (%)                      3.0        -99.0

*ENVIRONMENTAL AND STRESS FACTORS

 |-----Development Phase------|-------------Environment--------------|----------------Stress-----------------|
                              |--------Average-------|---Cumulative--|         (0=Min, 1=Max Stress)         |
                         Time  Temp  Temp Solar Photop         Evapo |----Water---|--Nitrogen--|--Phosphorus-|
                         Span   Max   Min   Rad  [day]   Rain  Trans  Photo         Photo         Photo
                         days    °C    °C MJ/m2     hr     mm     mm  synth Growth ' synth Growth  synth Growth
--------------------------------------------------------------------------------------------------------------
 Germinate  - Term Spklt   54  25.7   6.6  14.3  11.35   10.0   28.7  0.570  0.654  0.110  0.110 -99.00 -99.00
 Term Spklt - End Veg      18  25.3   5.7  15.8  11.78    3.6   10.2  0.647  0.729  0.000  0.000 -99.00 -99.00
 End Veg    - End Ear Gr   13  23.7   8.2  15.9  12.13    8.6   16.9  0.606  0.696  0.000  0.000 -99.00 -99.00
 End Ear Gr - Beg Gr Fil   15  28.3   7.3  20.5  12.49    0.1    6.8  0.708  0.776  0.000  0.000 -99.00 -99.00
 Beg Gr Fil - End Gr Fil   29  29.0   8.8  23.3  13.09   65.8   41.9  0.155  0.249  0.000  0.000 -99.00 -99.00
  
 Germinate  - End Gr Fil  129  26.5   7.2  17.4  12.02   88.1  104.5  0.507  0.592  0.046  0.046 -99.00 -99.00
--------------------------------------------------------------------------------------------------------------


*RESOURCE PRODUCTIVITY

 Growing season length: 129 days 

 Precipitation during growth season         88.1 mm[rain]
   Dry Matter Productivity                  4.47 kg[DM]/m3[rain]          =   44.7 kg[DM]/ha per mm[rain]
   Yield Productivity                       1.73 kg[grain yield]/m3[rain] =   17.3 kg[yield]/ha per mm[rain]

 Evapotranspiration during growth season   104.5 mm[ET]
   Dry Matter Productivity                  3.76 kg[DM]/m3[ET]            =   37.6 kg[DM]/ha per mm[ET]
   Yield Productivity                       1.46 kg[grain yield]/m3[ET]   =   14.6 kg[yield]/ha per mm[ET]

 Transpiration during growth season         68.5 mm[EP]
   Dry Matter Productivity                  5.75 kg[DM]/m3[EP]            =   57.5 kg[DM]/ha per mm[EP]
   Yield Productivity                       2.23 kg[grain yield]/m3[EP]   =   22.3 kg[yield]/ha per mm[EP]

 Irrigation during growing season          120.0 mm[irrig]
   Dry Matter Productivity                  3.28 kg[DM]/m3[irrig]         =   32.8 kg[DM]/ha per mm[irrig]
   Yield Productivity                       1.27 kg[grain yield]/m3[irrig]=   12.7 kg[yield]/ha per mm[irrig]

 N applied during growing season           173.0 kg[N applied]/ha
   Dry Matter Productivity                  22.7 kg[DM]/kg[N applied]
   Yield Productivity                        8.8 kg[yield]/kg[N applied]

 N uptake during growing season             46.7 kg[N uptake]/ha
   Dry Matter Productivity                  84.2 kg[DM]/kg[N uptake]
   Yield Productivity                       32.6 kg[yield]/kg[N uptake]

--------------------------------------------------------------------------------------------------------------

          WHEAT YIELD :     1524 kg/ha    [Dry weight] 

**************************************************************************************************************
