$GROWTH ASPECTS OUTPUT FILE

*DSSAT Cropping System Model Ver. 4.8.2.000 -release  AUG 22, 2025 13:14:18

*RUN   1        : WW23_G-1                  CSCER048 CIOB2301    1
 MODEL          : CSCER048 - Wheat
 EXPERIMENT     : CIOB2301 WH ROOTS ANATOMY
 DATA PATH      : C:\DSSAT48\Wheat\
 TREATMENT  1   : WW23_G-1                  CSCER048
  
@YEAR DOY   DAS   DAP TMEAN TKILL  GSTD  L#SD PARID PARUD  AWAD  LAID  SAID  CAID  TWAD SDWAD  RWAD  CWAD  LWAD  SWAD  HWAD  HIAD CHWAD  EWAD RSWAD SNWPD SNWLD SNWSD  RS%D  H#AD  HWUD  T#AD  SLAD  RDPD  PTFD  SWXD WAVRD WUPRD  WFTD  WFPD  WFGD  NFTD  NFPD  NFGD NUPRD  TFPD  TFGD VRNFD DYLFD
 2022 327    83     0  17.6  -6.0  0.00  0.00  0.00  0.00   0.0  0.00 0.000  0.00    43    43     0     0     0     0     0  0.00     0     0     0     0     0     0   0.0     0     0   150   -99  0.04  0.00  19.7  99.9  1.00  0.00  0.00  0.00  0.00  0.00  0.00   0.0  0.00  0.00  0.50  0.00
 2022 328    84     1  16.4  -6.0  5.84  0.00  0.00  0.00   0.0  0.00 0.000  0.00    43    43     0     0     0     0     0  0.00     0     0     0     0     0     0   0.0     0     0   150   -99  0.04  0.00   7.2  99.9  1.00  0.00  0.00  0.00  0.00  0.00  0.00   0.0  0.00  0.00  0.50  0.00
 2022 329    85     2  17.4  -6.0  8.40  0.00  0.00  0.00   0.0  0.00 0.000  0.00    43    42     1     0     0     0     0  0.00     0     0     0     0     0     0   0.0     0     0   150   -99  0.06  0.00   4.0  99.9  1.00  0.00  0.00  0.00  0.00  0.00  0.00   0.0  0.00  0.00  0.50  0.00
 2022 330    86     3  18.0  -6.0 10.00  0.00  0.00  0.00   0.0  0.00 0.000  0.00    43    40     2     0     0     0     0  0.00     0     0     0     0     0 .0010   0.0     0     0   150   -99  0.08  0.00   2.9  99.9  1.00  0.00  0.00  0.00  0.00  0.00  0.00   2.0  0.00  0.00  0.50  0.00
 2022 331    87     4  16.3  -6.0 10.32  0.32  0.02  0.00   0.0  0.03 0.003  0.03    43    26     3    13     9     4     0  0.00     0     0     0     0     0 .0027   0.0     0     0   150   350  0.10  0.75   2.8  99.9  1.00  0.00  0.00  0.00  0.00  0.00  0.00   0.1  0.00  0.00  0.50  0.31
 2022 332    88     5  16.1  -6.0 10.64  0.64  0.03  0.32   0.6  0.04 0.003  0.04    43    23     4    16    10     5     0  0.00     0     0     1     0 0.130 .0052   3.3     0     0   150   347  0.12  0.67   2.9  42.7  0.15  1.00  0.85  0.88  0.01  0.01  0.01   0.2  0.00  0.00  0.50  0.31
 2022 333    89     6  18.1  -6.0 10.99  0.99  0.03  0.31   0.7  0.04 0.004  0.05    43    19     5    19    12     7     0  0.00     0     0     1     0 0.281 .0090   5.9     0     0   150   347  0.14  0.67   4.1  50.2  0.18  1.00  0.82  0.86  0.17  0.17  0.17   0.2  0.00  0.00  0.50  0.31
 2022 334    90     7  18.5  -6.0 11.36  1.36  0.04  0.36   0.9  0.05 0.005  0.06    44    13     6    24    16     9     0  0.00     0     0     1     0 0.460 .0138   5.0     0     0   150   346  0.16  0.68   5.3  56.1  0.24  1.00  0.76  0.81  0.31  0.31  0.31   0.2  0.00  0.00  0.50  0.31
 2022 335    91     8  19.2  -6.0 11.73  1.73  0.04  0.30   1.0  0.06 0.006  0.07    45    10     8    27    17    10     0  0.00     0     0     1     0 0.690 .0199   5.0     0     0   150   345  0.19  0.68   6.6  52.6  0.26  1.00  0.74  0.80  0.46  0.46  0.46   0.4  0.00  0.00  0.50  0.32
 2022 336    92     9  23.0  -6.0 12.09  2.09  0.05  0.33   1.1  0.06 0.006  0.07    45     9     8    28    18    10     0  0.00     0     0     1     0 0.945 .0286   5.2     0     0   150   344  0.22  0.69   8.2  57.5  0.29  1.00  0.71  0.77  0.48  0.48  0.48   0.8  0.00  0.20  0.50  0.32
 2022 337    93    10  23.0  -6.0 12.32  2.32  0.05  0.38   1.2  0.06 0.006  0.07    46     9     8    29    19    11     0  0.00     0     0     2     0 1.212 .0378   5.5     0     0   150   343  0.24  0.69   9.7  72.5  0.32  1.00  0.68  0.75  0.44  0.44  0.44   1.2  0.00  0.20  0.50  0.32
 2022 338    94    11  22.0  -6.0 12.53  2.53  0.05  0.42   1.3  0.06 0.007  0.07    47     9     9    30    19    11     0  0.00     0     0     2     0 1.484 .0469   5.8     0     0   150   342  0.27  0.69  11.2  87.1  0.33  1.00  0.67  0.75  0.40  0.40  0.40   1.4  0.00  0.13  0.50  0.32
 2022 339    95    12  22.2  -6.0 12.75  2.75  0.05  1.10   1.4  0.07 0.007  0.07    48     9     9    31    20    11     0  0.00     0     0     2     0 1.484 .0565   5.1     0     0   189   342  0.30  0.73  12.8  99.9  0.80  0.39  0.20  0.38  0.36  0.36  0.36   1.4  0.00  0.15  0.50  0.32
 2022 340    96    13  19.7  -6.0 12.95  2.95  0.05  1.44   1.4  0.07 0.007  0.08    49     9     9    32    21    11     0  0.00     0     0     1     0 1.484 .0651   4.5     0     0   228   341  0.32  0.73  15.9  99.9  1.12  0.00  0.00  0.13  0.33  0.33  0.33   1.3  0.00  0.00  0.50  0.32
 2022 341    97    14  20.0  -6.0 13.14  3.14  0.05  1.09   1.9  0.07 0.007  0.08    51     9     9    33    22    12     0  0.00     0     0     1     0 1.484 .0741   3.9     0     0   255   340  0.34  0.73  16.8  99.9  0.73  0.55  0.27  0.44  0.30  0.30  0.30   1.4  0.00  0.00  0.50  0.32
 2022 342    98    15  20.8  -6.0 13.34  3.34  0.06  0.51   1.9  0.07 0.008  0.08    52     9    10    34    22    12     0  0.00     0     0     2     0 1.800 .0837   4.4     0     0   255   339  0.36  0.70  17.2  99.9  0.32  1.00  0.68  0.75  0.27  0.27  0.27   1.3  0.00  0.05  0.50  0.32
 2022 343    99    16  18.0  -6.0 13.52  3.52  0.06  0.50   2.1  0.08 0.008  0.08    54     9    10    35    23    13     0  0.00     0     0     2     0 2.124 .0924   4.8     0     0   255   337  0.37  0.70  18.1  99.9  0.31  1.00  0.69  0.76  0.24  0.24  0.24   1.6  0.00  0.00  0.50  0.32
 2022 344   100    17  17.0  -6.0 13.69  3.69  0.06  0.52   2.4  0.08 0.008  0.09    56     9    10    37    24    13     0  0.00     0     0     2     0 2.457 0.101   5.1     0     0   255   336  0.39  0.70  18.9  99.9  0.31  1.00  0.69  0.76  0.21  0.21  0.21   1.6  0.00  0.00  0.50  0.32
 2022 345   101    18  16.2  -6.0 13.85  3.85  0.06  0.58   2.6  0.08 0.008  0.09    58     9    11    38    24    14     0  0.00     0     0     2     0 2.801 0.109   5.4     0     0   255   335  0.40  0.70  19.6  99.9  0.33  1.00  0.67  0.74  0.19  0.19  0.19   1.6  0.00  0.00  0.50  0.32
 2022 346   102    19  16.1  -6.0 14.01  4.01  0.06  0.62   2.9  0.08 0.009  0.09    60     9    11    40    25    15     0  0.00     0     0     2     0 3.157 0.118   5.6     0     0   255   334  0.41  0.70  20.4  99.9  0.35  1.00  0.65  0.73  0.17  0.17  0.17   1.5  0.00  0.00  0.50  0.32
 2022 347   103    20  15.1  -6.0 14.15  4.15  0.06  0.72   3.4  0.08 0.009  0.09    61     9    12    41    25    16     0  0.00     0     0     4     0 4.931 0.127   9.5     0     0   255   332  0.42  0.71  65.7  99.9  0.40  1.00  0.60  0.70  0.15  0.15  0.15   1.3  0.00  0.00  0.50  0.32
 2022 348   104    21  15.2  -6.0 14.30  4.30  0.07  1.87   9.0  0.09 0.009  0.10    68     9    13    46    27    19     0  0.00     0     0     5     0 6.351 0.136  10.9     0     0   293   329  0.43  0.76  48.8  99.9  1.91  0.00  0.00  0.00  0.13  0.13  0.13   2.0  0.00  0.00  0.50  0.32
 2022 349   105    22  14.6  -6.0 21.21  4.45  0.07  1.93  10.0  0.10 0.011  0.11    75     9    15    52    31    21     0  0.00     0     0     6     0 7.732 0.146  11.5     0     0   332   326  0.44  0.76  34.3  99.9  2.08  0.00  0.00  0.00  0.10  0.10  0.10   1.9  0.00  0.00  0.49  0.32
 2022 350   106    23  12.5  -6.0 21.44  4.57  0.08  1.98   6.3  0.11 0.011  0.12    80     9    16    56    33    23     0  0.00     0     0     7     0 8.920 0.155  12.0     0     0   366   324  0.45  0.76  28.4  99.9  2.31  0.00  0.00  0.00  0.08  0.08  0.08   2.0  0.00  0.00  0.41  0.32
 2022 351   107    24  14.9  -6.0 21.71  4.72  0.09  2.01  11.5  0.12 0.013  0.14    90     9    17    64    38    26     0  0.00     0     0     7     0 9.499 0.167  10.6     0     0   407   322  0.47  0.76  26.5  99.9  1.26  0.00  0.00  0.03  0.06  0.06  0.06   0.8  0.00  0.00  0.41  0.32
 2022 352   108    25  15.5  -6.0 21.99  4.87  0.10  1.97  13.1  0.14 0.016  0.16   102     9    19    74    45    29     0  0.00     0     0     6     0 9.499 0.180   8.5     0     0   449   321  0.48  0.76  26.7  99.9  1.12  0.00  0.00  0.14  0.08  0.08  0.08   0.7  0.00  0.00  0.41  0.32
 2022 353   109    26  14.8  -6.0 22.25  5.01  0.12  1.80  14.1  0.17 0.018  0.19   114     9    21    85    53    32     0  0.00     0     0     6     0 9.499 0.194   6.9     0     0   487   319  0.49  0.76  27.2  97.3  0.94  0.11  0.06  0.27  0.11  0.11  0.11   0.7  0.00  0.00  0.40  0.32
 2022 354   110    27  16.6  -6.0 22.52  5.18  0.13  1.71  14.1  0.19 0.020  0.21   126     9    23    95    59    36     0  0.00     0     0     6     0 10.31 0.211   6.7     0     0   529   317  0.50  0.76  27.6  91.5  0.93  0.14  0.07  0.28  0.14  0.14  0.14   0.8  0.00  0.00  0.40  0.32
 2022 355   111    28  15.2  -6.0 22.72  5.33  0.15  1.49  15.1  0.21 0.023  0.23   139     9    25   105    65    40     0  0.00     0     0     7     0 11.07 0.229   6.3     0     0   557   315  0.51  0.76  28.1  77.1  0.82  0.36  0.18  0.37  0.15  0.15  0.15   0.9  0.00  0.00  0.40  0.32
 2022 356   112    29  15.3  -6.0 22.97  5.48  0.16  1.44  16.3  0.23 0.025  0.25   153     9    28   117    73    44     0  0.00     0     0     7     0 11.83 0.249   6.0     0     0   595   314  0.52  0.75  28.5  69.9  0.78  0.44  0.22  0.40  0.14  0.14  0.14   0.9  0.00  0.00  0.40  0.32
 2022 357   113    30  15.9  -6.0 23.21  5.63  0.18  1.41  17.3  0.25 0.028  0.28   168     9    30   129    81    48     0  0.00     0     0     7     0 12.62 0.271   5.8     0     0   632   312  0.54  0.75  28.9  64.4  0.76  0.48  0.24  0.41  0.13  0.13  0.13   0.9  0.00  0.00  0.40  0.32
 2022 358   114    31  16.2  -6.0 23.44  5.79  0.19  1.40  18.8  0.28 0.031  0.31   184     9    33   142    89    53     0  0.00     0     0     8     0 13.43 0.295   5.5     0     0   666   311  0.55  0.75  29.3  59.2  0.74  0.52  0.26  0.43  0.12  0.12  0.12   0.9  0.00  0.00  0.40  0.32
 2022 359   115    32  17.8  -6.0 23.65  5.97  0.21  1.33  19.7  0.30 0.034  0.34   201     9    36   156    98    58     0  0.00     0     0     8     0 14.32 0.325   5.3     0     0   697   310  0.56  0.75  29.8  52.9  0.70  0.61  0.30  0.46  0.11  0.11  0.11   0.9  0.00  0.00  0.47  0.32
 2022 360   116    33  17.0  -6.0 23.82  6.13  0.23  1.31  21.2  0.34 0.038  0.37   219     9    39   172   108    63     0  0.00     0     0     8     0 14.56 0.355   4.7     0     0   723   309  0.58  0.75  30.2  49.6  0.67  0.65  0.33  0.48  0.10  0.10  0.10   1.0  0.00  0.00  0.47  0.32
 2022 361   117    34  17.5  -6.0 23.97  6.31  0.24  1.27  22.2  0.37 0.042  0.41   239     9    43   188   119    69     0  0.00     0     0     8     0 15.05 0.389   4.4     0     0   746   308  0.59  0.74  30.6  46.1  0.65  0.71  0.35  0.50  0.09  0.09  0.09   0.9  0.00  0.00  0.50  0.32
 2022 362   118    35  16.6  -6.0 24.42  6.47  0.26  1.98  23.4  0.40 0.046  0.45   260     9    46   205   130    75     0  0.00     0     0     8     0 15.52 0.425   4.1     0     0   813   306  0.60  0.77  31.0  72.0  1.04  0.00  0.00  0.20  0.08  0.08  0.08   1.0  0.00  0.00  0.50  0.32
 2022 363   119    36  17.2  -6.0 24.89  6.64  0.27  2.00  11.1  0.42 0.048  0.46   269     9    47   213   136    77     0  0.00     0     0     8     0 16.00 0.464   3.9     0     0   884   305  0.61  0.77  31.8  99.9  2.31  0.00  0.00  0.00  0.07  0.07  0.07   2.0  0.00  0.00  0.50  0.32
 2022 364   120    37  18.6  -6.0 25.01  6.82  0.29  1.24  24.5  0.45 0.052  0.50   291     9    51   231   147    84     0  0.00     0     0     8     0 16.53 0.508   3.6     0     0   902   304  0.63  0.74  32.3  42.6  0.61  0.78  0.39  0.53  0.06  0.06  0.06   1.0  0.00  0.00  0.50  0.32
 2022 365   121    38  17.8  -6.0 25.09  7.00  0.30  1.17  25.9  0.48 0.055  0.53   311     9    55   248   157    91     0  0.00     0     0    11     0 19.14 0.554   4.3     0     0   913   303  0.64  0.74  32.6  38.8  0.57  0.86  0.43  0.56  0.05  0.05  0.05   1.1  0.00  0.00  0.50  0.32
 2023   1   122    39  16.6  -6.0 25.25  7.16  0.33  1.38  28.2  0.52 0.060  0.58   336     9    59   269   171    98     0  0.00     0     0    10     0 19.14 0.599   3.8     0     0   938   302  0.65  0.75  32.8  44.4  0.67  0.66  0.33  0.48  0.04  0.04  0.04   1.2  0.00  0.00  0.50  0.32
 2023   2   123    40  15.1  -6.0 25.53  7.31  0.35  1.68  30.2  0.56 0.065  0.62   363     9    63   291   185   106     0  0.00     0     0    11     0 19.90 0.644   3.7     0     0   979   301  0.66  0.76  33.0  52.4  0.81  0.38  0.19  0.38  0.03  0.03  0.03   1.0  0.00  0.00  0.50  0.32
 2023   3   124    41  13.8  -6.0 25.59  7.44  0.36  1.20  31.5  0.59 0.069  0.66   388     9    68   311   196   115     0  0.00     0     0    14     0 23.23 0.688   4.4     0     0   988   300  0.67  0.74  71.6  79.3  0.57  0.85  0.43  0.56  0.02  0.02  0.02   1.0  0.00  0.00  0.46  0.32
 2023   4   125    42  16.3  -6.0 26.05  7.60  0.40  2.11  59.4  0.67 0.080  0.75   442     9    76   357   227   131     0  0.00     0     0    14     0 23.23 0.743   3.8     0     0  1058   298  0.68  0.78  54.6  49.9  1.84  0.00  0.00  0.00  0.02  0.02  0.02   1.3  0.00  0.00  0.46  0.32
 2023   5   126    43  17.6  -6.0 26.57  7.78  0.45  2.12  68.7  0.77 0.092  0.87   505     9    85   411   262   150     0  0.00     0     0    14     0 23.23 0.810   3.4     0     0  1135   296  0.69  0.78  45.9  36.4  1.77  0.00  0.00  0.00  0.01  0.01  0.01   1.2  0.00  0.00  0.49  0.32
 2023   6   127    44  18.3  -6.0 27.10  7.95  0.49  2.13  75.2  0.88 0.106  0.99   573     9    94   470   300   170     0  0.00     0     0    15     0 23.23 0.888   3.1     0     0  1215   294  0.70  0.79  42.3  31.1  1.37  0.00  0.00  0.00  0.01  0.01  0.01   0.9  0.00  0.00  0.49  0.32
 2023   7   128    45  17.7  -6.0 27.61  8.13  0.53  2.10  78.8  1.00 0.120  1.12   645     9   105   532   339   194     0  0.00     0     0    15     0 23.23 0.972   2.8     0     0  1291   295  0.72  0.78  41.4  29.2  1.28  0.00  0.00  0.02  0.02  0.02  0.02   0.8  0.00  0.00  0.49  0.32
 2023   8   129    46  17.3  -6.0 28.09  8.30  0.57  2.06  84.0  1.10 0.133  1.23   717     9   115   594   376   217     0  0.00     0     0    20     0 27.70 1.062   3.4     0     0  1364   291  0.73  0.78  40.7  26.6  1.16  0.00  0.00  0.11  0.04  0.04  0.04   0.8  0.00  0.00  0.49  0.32
 2023   9   130    47  16.6  -6.0 28.54  8.46  0.60  1.94  88.1  1.20 0.147  1.35   793     9   127   658   415   243     0  0.00     0     0    25     0 32.03 1.158   3.8     0     0  1431   290  0.74  0.78  39.9  23.6  0.96  0.08  0.04  0.26  0.06  0.06  0.06   0.8  0.00  0.00  0.49  0.32
 2023  10   131    48  17.2  -6.0 28.89  8.63  0.63  1.69  78.6  1.30 0.159  1.45   860     9   137   714   449   265     0  0.00     0     0    29     0 36.52 1.267   4.1     0     0  1483   289  0.75  0.77  39.2  22.4  0.84  0.32  0.16  0.35  0.06  0.06  0.06   1.0  0.00  0.00  0.49  0.32
 2023  11   132    49  17.9  -6.0 29.09  8.81  0.65  1.41  72.4  1.38 0.170  1.55   921     9   148   765   479   286     0  0.00     0     0    33     0 41.21 1.390   4.3     0     0  1514   288  0.76  0.76  38.7  19.8  0.70  0.60  0.30  0.46  0.06  0.06  0.06   1.1  0.00  0.00  0.50  0.32
 2023  12   133    50  18.4  -6.0 29.24  8.99  0.67  1.30  69.2  1.45 0.180  1.64   978     9   158   812   508   305     0  0.00     0     0    36     0 46.04 1.526   4.5     0     0  1536   287  0.77  0.75  38.4  18.8  0.63  0.73  0.37  0.51  0.05  0.05  0.05   1.2  0.00  0.00  0.50  0.32
 2023  13   134    51  16.6  -6.0 29.35  9.15  0.69  1.26  68.5  1.54 0.191  1.73  1037     9   168   861   538   322     0  0.00     0     0    38     0 49.12 1.657   4.4     0     0  1552   286  0.78  0.75  38.0  18.7  0.61  0.78  0.39  0.53  0.04  0.04  0.04   1.2  0.00  0.00  0.50  0.31
 2023  14   135    52  17.6  -6.0 29.42  9.32  0.70  1.19  65.8  1.57 0.196  1.77  1081     9   178   895   551   344     0  0.00     0     0    50     0 63.77 1.805   5.6     0     0  1563   285  0.80  0.75  37.7  17.8  0.57  0.86  0.43  0.56  0.03  0.03  0.03   1.2  0.00  0.00  0.50  0.31
 2023  15   136    53  16.9  -6.0 29.76  9.49  0.71  1.77  68.0  1.64 0.206  1.85  1136     9   187   941   579   363     0  0.00     0     0    54     0 70.53 1.955   5.8     0     0  1614   284  0.81  0.78  37.3  26.5  0.84  0.31  0.16  0.35  0.02  0.02  0.02   1.8  0.00  0.00  0.50  0.31
 2023  16   137    54  17.0  -6.0 29.82  9.66  0.72  1.18  67.5  1.67 0.212  1.89  1182     9   196   977   593   384     0  0.00     0     0    66     0 85.50 2.113   6.7     0     0  1623   282  0.82  0.75  37.0  17.6  0.56  0.88  0.44  0.57  0.02  0.02  0.02   1.3  0.00  0.00  0.50  0.31
 2023  17   138    55  14.1  -6.0 30.00  9.79  0.73  2.12  36.7  1.72 0.218  1.94  1211     9   201  1001   610   392     0  0.00     0     0    65     0 90.03 2.251   6.5     0     0  1684   282  0.83  0.79  37.3  62.6  1.97  0.00  0.00  0.00  0.01  0.01  0.01   2.0  0.00  0.00  0.48  0.31
 2023  18   139    56  13.8  -6.0 30.00  9.93  0.74  1.26  70.9  1.79 0.227  2.01  1266     9   211  1046   636   411     0  0.00     0     0    69     0 98.59 2.390   6.6     0     0  1696   281  0.84  0.75  36.8  18.8  0.59  0.82  0.41  0.54  0.01  0.01  0.01   1.1  0.00  0.00  0.44  0.31
 2023  19   140    57  14.2  -6.0 30.00 10.07  0.76  1.18  67.4  1.85 0.236  2.08  1318     9   221  1088   659   429     0  0.00     0     0    73     0 107.5 2.541   6.7     0     0  1702   280  0.85  0.75  36.4  18.1  0.55  0.89  0.45  0.57  0.00  0.00  0.00   1.4  0.00  0.00  0.41  0.31
 2023  20   141    58  13.8  -6.0 30.00 10.20  0.76  1.01  65.4  1.88 0.241  2.12  1361     9   231  1121   673   448     0  0.00     0     0    83     0 123.1 2.693   7.4     0     0  1702   279  0.85  0.74  87.1  38.3  0.47  1.00  0.53  0.64  0.00  0.00  0.00   1.4  0.00  0.00  0.37  0.31
 2023  21   142    59  14.1  -6.0 30.00 10.34  0.79  2.15 140.5  2.05 0.265  2.31  1483     9   248  1226   739   488     0  0.00     0     0    86     0 129.6 2.856   7.0     0     0  1764   277  0.86  0.80  70.1  30.2  2.92  0.00  0.00  0.00  0.00  0.00  0.00   1.6  0.00  0.00  0.35  0.31
 2023  22   143    60  14.1  -6.0 30.00 10.48  0.82  2.15 149.3  2.23 0.291  2.52  1614     9   266  1339   809   530     0  0.00     0     0    89     0 136.2 3.030   6.7     0     0  1764   275  0.87  0.80  60.1  24.3  2.94  0.00  0.00  0.00  0.00  0.00  0.00   1.3  0.00  0.00  0.32  0.31
 2023  23   144    61  12.6  -6.0 30.00 10.60  0.84  2.15 130.7  2.41 0.316  2.73  1733     9   282  1443   879   563     0  0.00     0     0    86     0 137.1 3.197   6.0     0     0  1764   274  0.88  0.80  56.9  27.4  3.25  0.00  0.00  0.00  0.00  0.00  0.00   1.6  0.00  0.00  0.24  0.30
 2023  24   145    62  13.1  -6.0 30.00 10.73  0.87  2.15 159.8  2.63 0.346  2.98  1879     9   301  1570   964   606     0  0.00     0     0    83     0 137.1 3.381   5.3     0     0  1764   273  0.89  0.80  54.3  21.1  2.55  0.00  0.00  0.00  0.00  0.00  0.00   1.2  0.00  0.00  0.18  0.30
 2023  25   146    63  14.5  -6.0 30.00 10.87  0.89  2.15 165.4  2.86 0.378  3.23  2031     9   320  1702  1052   651     0  0.00     0     0    81     0 137.1 3.599   4.7     0     0  1764   272  0.90  0.80  51.5  18.6  2.10  0.00  0.00  0.00  0.00  0.00  0.00   1.1  0.00  0.00  0.16  0.30
 2023  26   147    64  15.7  -6.0 30.00 11.03  0.90  2.15 156.1  3.07 0.407  3.48  2175     9   339  1828  1134   693     0  0.00     0     0    79     0 137.1 3.850   4.3     0     0  1764   270  0.91  0.80  49.0  18.3  1.92  0.00  0.00  0.00  0.00  0.00  0.00   1.2  0.00  0.00  0.00  0.00
 2023  27   148    65  12.1  -6.0 30.00 11.15  0.91  2.15 127.1  3.22 0.430  3.65  2289     9   353  1927  1195   731     0  0.00     0     0    79     0 140.3 4.056   4.1     0     0  1764   270  0.92  0.80  47.2  23.0  2.28  0.00  0.00  0.00  0.00  0.00  0.00   1.6  0.00  0.00  0.00  0.00
 2023  28   149    66  15.6  -6.0 30.00 11.30  0.93  2.15 143.3  3.39 0.456  3.85  2416     9   370  2038  1260   778     0  0.00     0     0    82     0 144.4 4.331   4.0     0     0  1764   269  0.93  0.81  45.2  18.0  1.64  0.00  0.00  0.00  0.00  0.00  0.00   1.5  0.00  0.00  0.00  0.00
 2023  29   150    67  14.4  -6.0 30.00 11.44  0.94  2.15 175.7  3.60 0.487  4.08  2574     9   390  2176  1340   836     0  0.00     0     0    87     0 148.2 4.599   4.0     0     0  1764   268  0.94  0.81  42.8  14.3  1.14  0.00  0.00  0.12  0.00  0.00  0.00   1.2  0.00  0.00  0.00  0.00
 2023  30   151    68  14.6  -6.0 30.38 11.58  0.94  2.15 158.7  3.78 0.515  4.30  2717     9   407  2301  1411   890     0  0.00     0     0    91     0 152.0 4.882   4.0     0     0  1764   268  0.95  0.81  40.8  15.0  1.01  0.00  0.00  0.22  0.00  0.00  0.00   1.3  0.00  0.00  0.00  0.00
 2023  31   152    69  14.5  -6.0 31.07 11.73  0.95  1.72 131.6  3.93 0.538  4.46  2834     9   423  2402  1467   934     0  0.00     0     0    94     0 155.9 5.178   3.9     0     0  1764   267  0.96  0.79  39.2  13.9  0.80  0.40  0.20  0.38  0.00  0.00  0.00   1.7  0.00  0.00  0.00  0.00
 2023  32   153    70  13.4  -6.0 31.70 11.86  0.95  2.03 116.5  4.06 0.559  4.61  2938     9   436  2493  1517   976     0  0.00     0     0    95     0 159.5 5.460   3.8     0     0  1764   267  0.96  0.81  38.0  18.5  0.94  0.11  0.06  0.27  0.00  0.00  0.00   1.9  0.00  0.00  0.00  0.00
 2023  33   154    71  15.9  -6.0 32.46 12.01  0.96  1.21  95.8  4.07 0.565  4.64  2999     9   449  2541  1547   994     0  0.00     0     0   118     0 184.9 5.806   4.6     0     0  1764   263  0.98  0.78  37.1  12.3  0.56  0.87  0.44  0.57  0.00  0.00  0.00   2.0  0.00  0.00  0.00  0.00
 2023  34   155    72  16.9  -6.0 33.26 12.18  0.96  1.05  83.0  4.07 0.570  4.64  3048     9   460  2580  1564  1016     0  0.00     0     0   138     0 210.7 6.184   5.3     0     0  1764   261  0.99  0.77  81.8  26.4  0.49  1.00  0.51  0.62  0.00  0.00  0.00   2.0  0.00  0.00  0.00  0.00
 2023  35   156    73  16.9  -6.0 34.06 12.34  0.96  2.15 175.3  4.25 0.602  4.86  3206     9   478  2720  1643  1077     0  0.00     0     0   143     0 215.3 6.573   5.2     0     0  1764   259  1.00  0.82  72.8  22.6  3.47  0.00  0.00  0.00  0.00  0.00  0.00   2.0  0.00  0.00  0.00  0.00
 2023  36   157    74  18.1  -6.0 34.93 12.52  0.97  2.15 176.4  4.43 0.634  5.06  3365     9   496  2861  1716  1145     0  0.00     0     0   149     0 220.1 7.007   5.2     0     0  1764   258  1.01  0.83  67.5  20.3  4.23  0.00  0.00  0.00  0.00  0.00  0.00   2.0  0.00  0.00  0.00  0.00
 2023  37   158    75  16.7  -6.0 35.72 12.69  0.97  2.15 170.0  4.60 0.665  5.26  3519     9   513  2998  1785  1213     0  0.00     0     0   154     0 224.6 7.421   5.1     0     0  1764   258  1.02  0.83  65.1  21.1  4.51  0.00  0.00  0.00  0.00  0.00  0.00   2.0  0.00  0.00  0.00  0.00
 2023  38   159    76  16.2  -6.0 36.50 12.85  0.97  2.15 185.3  4.78 0.698  5.47  3687     9   531  3148  1859  1289     0  0.00     0     0   161     0 229.0 7.836   5.1     0     0  1764   257  1.03  0.83  62.4  18.9  3.83  0.00  0.00  0.00  0.00  0.00  0.00   2.0  0.00  0.00  0.00  0.00
 2023  39   160    77  18.1  -6.0 37.36 13.02  0.98  2.15 191.2  4.92 0.733  5.66  3860     9   549  3303  1935  1368     0  0.00     0     0   170     0 233.9 8.318   5.1     0     0  1711   254  1.04  0.84  59.6  16.6  2.98  0.00  0.00  0.00  0.00  0.00  0.00   2.0  0.00  0.00  0.00  0.00
 2023  40   161    78  15.1  -6.0 38.08 13.17  0.98  2.15 193.9  5.07 0.769  5.84  4037     9   567  3462  2010  1451     0  0.00     0     0   179     0 238.0 8.732   5.2     0     0  1667   252  1.05  0.84  56.8  16.4  2.35  0.00  0.00  0.00  0.00  0.00  0.00   2.0  0.00  0.00  0.00  0.00
 2023  41   162    79  17.1  -6.0 38.90 13.34  0.98  2.15 171.3  5.19 0.800  5.99  4192     9   583  3601  2075  1526     0  0.00     0     0   185     0 242.8 9.218   5.1     0     0  1620   250  1.06  0.84  54.4  17.1  1.99  0.00  0.00  0.00  0.00  0.00  0.00   2.0  0.00  0.00  0.00  0.00
 2023  42   163    80  14.0  -6.0 39.56 13.48  0.98  2.15  62.1  5.23 0.814  6.05  4246     9   588  3650  2094  1556     0  0.00     0     0   178     0 246.6 9.626   4.9     0     0  1583   250  1.07  0.85  54.0  50.8  4.77  0.00  0.00  0.00  0.00  0.00  0.00   2.0  0.00  0.00  0.00  0.00
 2023  43   164    81  15.7  -6.0 40.33 13.63  0.98  2.15 174.8  5.35 0.846  6.20  4406     9   604  3794  2158  1636     0  0.00     0     0   187     0 251.0 10.09   4.9     0     0  1542   248  1.08  0.85  51.7  16.6  1.52  0.00  0.00  0.00  0.00  0.00  0.00   2.0  0.00  0.00  0.00  0.00
 2023  44   165    82  13.9  -6.0 41.02 13.63  0.98  2.64 145.6  5.29 0.863  6.15  4542     9   616  3918  2192  1716     0  0.00     0     0   234    10 251.0 10.51   6.0     0     0  1507   241  1.09  0.85  50.4  25.1  1.93  0.00  0.00  0.00  0.00  0.00  0.00   2.0  0.00  0.00  0.00  0.00
 2023  45   166    83  13.7  -6.0 41.71 13.63  0.98  2.64 217.0  5.23 0.891  6.12  4746     9   635  4103  2183  1900     0  0.00     0     0   300    20 251.0 10.93   7.3     0     0  1474   240  1.10  0.86  48.1  15.9  1.14  0.00  0.00  0.12  0.00  0.00  0.00   2.0  0.00  0.00  0.00  0.00
 2023  46   167    84  14.2  -6.0 42.41 13.63  0.98  2.47 208.7  5.17 0.917  6.08  4942     9   653  4281  2172  2079     0  0.00     0     0   364    31 251.0 11.38   8.6     0     0  1441   238  1.11  0.85  49.8  16.0  0.93  0.13  0.07  0.28  0.00  0.00  0.00   2.0  0.00  0.00  0.00  0.00
 2023  47   168    85  14.1  -6.0 43.12 13.63  0.98  2.64 246.4  5.11 0.949  6.06  5175     9   673  4494  2161  2292     0  0.00     0     0   438    41 251.0 11.84   9.8     0     0  1408   236  1.12  0.86  47.0  13.7  1.30  0.00  0.00  0.00  0.00  0.00  0.00   2.0  0.00  0.00  0.00  0.00
 2023  48   169    86  12.8  -6.0 43.76 13.63  0.98  2.64 177.5  5.05 0.972  6.02  5342     9   686  4647  2151  2445     0  0.00     0     0   494    51 251.0 12.27  10.7     0     0  1380   235  1.13  0.87  91.9  37.8  1.16  0.00  0.00  0.11  0.00  0.00  0.00   2.0  0.00  0.00  0.00  0.00
 2023  49   170    87  17.4  -6.0 44.63 13.63  0.98  2.64 157.9  4.98 0.990  5.97  5491     9   698  4784  2135  2585     0  0.00     0     0   548    64 251.0 12.87  11.6     0     0  1342   233  1.14  0.87  98.8  42.1  7.19  0.00  0.00  0.00  0.00  0.00  0.00   2.0  0.00  0.00  0.00  0.00
 2023  50   171    88  18.8  -6.0 45.57 13.63  0.98  2.64 138.3  4.90 1.004  5.90  5622     9   708  4905  2119  2708     0  0.00     0     0   599    78 251.0 13.52  12.4     0     0  1303   231  1.15  0.87  85.6  40.4  9.69  0.00  0.00  0.00  0.00  0.00  0.00   2.0  0.00  0.00  0.00  0.00
 2023  51   172    89  18.3  -6.0 46.49 13.63  0.97  2.64 170.4  4.82 1.024  5.85  5783     9   720  5055  2104  2858     0  0.00     0     0   657    92 251.0 14.17  13.2     0     0  1267   229  1.16  0.88  80.5  31.1  8.05  0.00  0.00  0.00  0.00  0.00  0.00   2.0  0.00  0.00  0.00  0.00
 2023  52   173    90  16.3  -6.0 47.30 13.63  0.97  2.64 157.3  4.75 1.042  5.80  5933     9   730  5194  2091  2998     0  0.00     0     0   712   105 251.0 14.76  14.0     0     0  1235   227  1.17  0.88  79.4  35.1  9.36  0.00  0.00  0.00  0.00  0.00  0.00   2.0  0.00  0.00  0.00  0.00
 2023  53   174    91  15.3  -6.0 48.07 13.63  0.97  2.64 258.8  4.69 1.077  5.77  6179     9   748  5423  2078  3228     0  0.00     0     0   792   116 251.0 15.32  14.9     0     0  1206   226  1.18  0.89  76.3  20.9  5.87  0.00  0.00  0.00  0.00  0.00  0.00   2.0  0.00  0.00  0.00  0.00
 2023  54   175    92  16.1  -6.0 48.88 13.63  0.97  2.64 259.7  4.62 1.112  5.74  6427     9   764  5654  2064  3356     0  0.00   105   105   874   129 251.0 15.92  15.8     0     0  1177   224  1.19  0.89  73.1  19.3  5.07  0.00  0.00  0.00  0.00  0.00  0.00   2.0  0.00  0.00  0.00  0.00
 2023  55   176    93  13.1  -6.0 49.53 13.63  0.97  2.64 166.9  4.57 1.133  5.70  6586     9   774  5803  2053  3411     0  0.00   200   173   929   139 251.0 16.43  16.4     0     0  1154   223  1.20  0.89  71.4  31.3  6.55  0.00  0.00  0.00  0.00  0.00  0.00   2.0  0.00  0.00  0.00  0.00
 2023  56   177    94  15.6  -6.0 51.46 13.63  0.97  2.64 164.1  4.51 1.153  5.66  6743     9   784  5951  2039  3474     0  0.00   286   240   985   151 251.0 17.03  17.0     0     0  1128   221  1.21  0.90  69.4  29.4  5.39  0.00  0.00  0.00  0.00  0.00  0.00   2.0  0.00  0.00  0.00  0.00
 2023  57   178    95  17.0  -6.0 55.37 13.63  0.97  2.64 266.3  4.46 1.185  5.64  6998     9   798  6192  2030  3584     0  0.00   417   350  1066   160 251.0 17.70  17.7     0     0  1100   220  1.21  0.90  65.2  16.7  2.76  0.00  0.00  0.00  0.00  0.00  0.00   2.0  0.00  0.00  0.00  0.00
 2023  58   179    96  16.0  -6.0 59.07 13.63  0.97  2.64 265.9  4.41 1.218  5.63  7255     9   811  6435  2023  3682     0  0.00   563   461  1147   168 251.0 18.33  18.3     0     0  1075   218  1.21  0.92  61.1  15.8  2.14  0.00  0.00  0.00  0.00  0.00  0.00   2.0  0.00  0.00  0.00  0.00
 2023  59   180    97  16.1  -6.0 69.28 13.63  0.96  2.64 234.9  4.36 1.247  5.61  7482     9   821  6653  2015  3763     0  0.00   698   560  1221   176 251.0 18.99  18.9     0     0  1050   216  1.21  0.93  57.5  16.7  1.86  0.00  0.00  0.00  0.00  0.00  0.00   2.0  0.00  0.00  0.00  0.00
 2023  60   181    98  12.6  -6.0 70.58 13.63  0.96  2.64  80.3  4.32 1.253  5.58  7560     9   823  6728  2009  3772     0  0.00   764   594  1250   183 251.0 19.51  19.1     0     0  1032   215  1.21  0.94  56.3  52.8  4.78  0.00  0.00  0.00  0.00  0.00  0.00   2.0  0.00  0.00  0.00  0.00
 2023  61   182    99  14.6  -6.0 71.29 13.63  0.96  2.64 275.1  4.28 1.290  5.57  7829     9   831  6989  2001  3892     8  0.00   897   721  1328   190 251.0 20.11  19.6 15120 .0001  1011   214  1.21  0.95  52.3  13.7  1.25  0.00  0.00  0.04  0.00  0.00  0.00   2.0  0.00  0.00  0.00  0.00
 2023  62   183   100  14.9  -6.0 72.03 13.63  0.96  2.47 262.7  4.24 1.325  5.56  8086     9   838  7239  1994  3970    28  0.00  1049   854  1391   198 251.0 20.73  19.8 15120 .0002   990   213  1.21  0.95  48.3  12.2  0.93  0.13  0.07  0.28  0.00  0.00  0.00   2.0  0.00  0.00  0.00  0.00
 2023  63   184   101  14.5  -6.0 72.74 13.63  0.96  1.92 204.9  4.20 1.351  5.55  8285     9   845  7431  1986  4013    56  0.01  1169   970  1427   206 251.0 21.33  19.9 15120 .0004   971   211  1.21  0.94  45.1  11.3  0.73  0.55  0.27  0.44  0.00  0.00  0.00   2.0  0.00  0.00  0.00  0.00
 2023  64   185   102  15.5  -6.0 73.50 13.63  0.96  1.53 165.2  4.07 1.369  5.44  8445     9   851  7586  1938  4039   101  0.01  1269  1085  1463   239 251.0 21.99  20.2 15120 .0007   951   210  1.21  0.94  42.4  10.2  0.58  0.84  0.42  0.55  0.00  0.00  0.00   2.0  0.00  0.00  0.00  0.00
 2023  65   186   103  16.9  -6.0 74.33 13.63  0.95  1.33 138.2  3.94 1.360  5.30  8579     9   855  7716  1890  4067   165  0.02  1322  1149  1562   273 251.0 22.71  21.5 15120 .0011   929   208  1.21  0.94  40.2   9.8  0.50  0.99  0.50  0.61  0.00  0.00  0.00   2.0  0.00  0.00  0.00  0.00
 2023  66   187   104  16.9  -6.0 75.15 13.63  0.95  1.50 120.3  3.81 1.351  5.16  8697     9   858  7831  1843  4095   244  0.03  1343  1228  1631   306 251.0 23.43  22.4 15120 .0016   909   207  1.21  0.96  90.5  28.7  0.57  0.87  0.43  0.56  0.00  0.00  0.00   2.0  0.00  0.00  0.00  0.00
 2023  67   188   105  18.4  -6.0 76.06 13.63  0.94  2.64 247.6  3.76 1.342  5.10  8942     9   860  8073  1832  4193   347  0.04  1387  1331  1781   315 251.0 24.22  24.0 15120 .0023   887   205  1.21  0.98  86.3  22.8  4.43  0.00  0.00  0.00  0.00  0.00  0.00   2.0  0.00  0.00  0.00  0.00
 2023  68   189   106  19.7  -6.0 77.02 13.63  0.94  2.64 269.5  3.71 1.332  5.04  9208     9   862  8337  1820  4287   476  0.06  1429  1460  1926   326 251.0 25.06  25.6 15120 .0031   865   204  1.21  0.98  81.5  19.3  5.83  0.00  0.00  0.00  0.00  0.00  0.00   2.0  0.00  0.00  0.00  0.00
 2023  69   190   107  19.4  -6.0 77.98 13.63  0.94  2.64 280.0  3.66 1.322  4.98  9485     9   865  8612  1809  4375   623  0.07  1468  1607  2063   336 251.0 25.90  27.0 15120 .0041   844   202  1.21  0.98  76.7  17.6  5.64  0.00  0.00  0.00  0.00  0.00  0.00   2.0  0.00  0.00  0.00  0.00
 2023  70   191   108  19.6  -6.0 78.94 13.63  0.94  2.64 275.6  3.61 1.312  4.92  9758     9   867  8882  1797  4445   793  0.09  1500  1777  2174   347 251.0 26.75  28.1 15120 .0052   823   201  1.21  0.98  72.0  16.7  4.88  0.00  0.00  0.00  0.00  0.00  0.00   2.0  0.00  0.00  0.00  0.00
 2023  71   192   109  22.8  -6.0 80.02 13.63  0.93  2.64 273.6  3.55 1.301  4.85 10028     9   869  9150  1783  4478  1013  0.11  1517  1997  2235   359 251.0 27.74  28.7 15120 .0067   800   199  1.21  0.98  66.9  14.8  3.35  0.00  0.00  0.00  0.00  0.00  0.00   2.0  0.00  0.18  0.00  0.00
 2023  72   193   110  22.0  -6.0 80.41 13.63  0.93  2.64 279.0  3.51 1.291  4.81 10304     9   872  9423  1782  4497  1255  0.13  1526  2240  2270   363 251.0 28.69  29.1 15120 .0083   779   197  1.21  0.98  61.9  13.7  2.38  0.00  0.00  0.00  0.00  0.00  0.00   2.0  0.00  0.13  0.00  0.00
 2023  73   194   111  19.8  -6.0 80.75 13.63  0.93  2.64 285.9  3.49 1.282  4.77 10587     9   874  9704  1781  4539  1473  0.15  1543  2458  2336   367 251.0 29.56  29.7 15120 .0097   761   196  1.21  0.98  56.9  12.8  1.74  0.00  0.00  0.00  0.00  0.00  0.00   2.0  0.00  0.00  0.00  0.00
 2023  74   195   112  19.5  -6.0 81.10 13.63  0.93  2.65 251.0  3.46 1.273  4.73 10835     9   877  9950  1780  4559  1688  0.17  1552  2672  2372   371 251.0 30.41  30.1 15120 .0112   744   194  1.21  0.98  52.5  13.5  1.46  0.00  0.00  0.00  0.00  0.00  0.00   2.0  0.00  0.00  0.00  0.00
 2023  75   196   113  20.5  -6.0 81.46 13.63  0.93  2.65 229.7  3.43 1.264  4.69 11062     9   878 10175  1778  4557  1913  0.19  1551  2897  2375   375 251.0 31.30  30.1 15120 .0127   727   193  1.21  0.98  48.8  13.6  1.21  0.00  0.00  0.07  0.00  0.00  0.00   2.0  0.00  0.03  0.00  0.00
 2023  76   197   114  20.0  -6.0 81.81 13.63  0.93  2.65  98.1  3.40 1.255  4.66 11158     9   879 10271  1777  4467  2134  0.21  1514  3118  2255   379 251.0 32.18  29.1 15120 .0141   711   191  1.21  0.98 101.8  68.1  2.26  0.00  0.00  0.00  0.00  0.00  0.00   2.0  0.00  0.00  0.00  0.00
 2023  77   198   115  19.0  -6.0 82.14 13.63  0.92  2.65 266.9  3.38 1.247  4.62 11422     9   881 10532  1776  4501  2344  0.22  1528  3328  2310   383 251.0 33.02  29.6 15120 .0155   696   190  1.20  0.98 119.2  29.4  5.26  0.00  0.00  0.00  0.00  0.00  0.00   2.0  0.00  0.00  0.00  0.00
 2023  78   199   116  19.0  -6.0 82.48 13.63  0.92  2.65 279.9  3.35 1.239  4.59 11699     9   884 10807  1775  4545  2553  0.24  1547  3538  2379   387 251.0 33.86  30.2 15120 .0169   682   189  1.20  0.98 100.0  23.4  6.07  0.00  0.00  0.00  0.00  0.00  0.00   2.0  0.00  0.00  0.00  0.00
 2023  79   200   117  19.0  -6.0 82.81 13.63  0.92  2.65 277.0  3.33 1.231  4.56 11973     9   886 11078  1773  4586  2763  0.25  1565  3747  2444   391 251.0 34.70  30.8 15120 .0183   669   188  1.20  0.98  85.3  20.3  5.69  0.00  0.00  0.00  0.00  0.00  0.00   2.0  0.00  0.00  0.00  0.00
 2023  80   201   118  20.1  -6.0 83.16 13.63  0.92  2.65 274.1  3.30 1.223  4.52 12244     9   888 11347  1772  4618  2985  0.26  1578  3969  2495   395 251.0 35.59  31.3 15120 .0197   655   186  1.20  0.98  80.1  19.1  6.23  0.00  0.00  0.00  0.00  0.00  0.00   2.0  0.00  0.01  0.00  0.00
 2023  81   202   119  20.2  -6.0 83.52 13.63  0.92  2.65 273.6  3.27 1.215  4.49 12514     9   891 11615  1770  4647  3207  0.28  1591  4192  2545   399 251.0 36.49  31.8 15120 .0212   642   185  1.20  0.98  75.2  17.6  5.59  0.00  0.00  0.00  0.00  0.00  0.00   2.0  0.00  0.02  0.00  0.00
 2023  82   203   120  19.6  -6.0 83.86 13.63  0.92  2.65 284.1  3.25 1.208  4.46 12795     9   893 11893  1768  4690  3423  0.29  1609  4407  2611   403 251.0 37.37  32.4 15120 .0226   629   184  1.20  0.98  70.2  16.2  4.69  0.00  0.00  0.00  0.00  0.00  0.00   2.0  0.00  0.00  0.00  0.00
 2023  83   204   121  17.6  -6.0 84.17 13.63  0.91  2.65 303.0  3.23 1.201  4.43 13095     9   896 12190  1767  4760  3617  0.30  1639  4601  2718   406 251.0 38.15  33.3 15120 .0239   619   183  1.20  0.98  65.1  14.6  3.36  0.00  0.00  0.00  0.00  0.00  0.00   2.0  0.00  0.00  0.00  0.00
 2023  84   205   122  17.1  -6.0 84.47 13.63  0.91  2.65 290.4  3.21 1.195  4.40 13382     9   899 12475  1766  4826  3805  0.31  1668  4789  2818   410 251.0 38.92  34.1 15120 .0252   609   182  1.20  0.98  60.5  14.3  2.59  0.00  0.00  0.00  0.00  0.00  0.00   2.0  0.00  0.00  0.00  0.00
 2023  85   206   123  17.5  -6.0 84.78 13.63  0.91  2.65 292.4  3.18 1.188  4.37 13672     9   902 12761  1764  4891  3998  0.31  1695  4982  2915   413 251.0 39.70  34.9 15120 .0264   599   181  1.20  0.98  56.1  13.0  1.86  0.00  0.00  0.00  0.00  0.00  0.00   2.0  0.00  0.00  0.00  0.00
 2023  86   207   124  17.5  -6.0 85.09 13.63  0.91  2.65 226.8  3.16 1.182  4.35 13896     9   904 12984  1762  4910  4191  0.32  1703  5175  2948   417 251.0 40.50  35.2 15120 .0277   590   180  1.20  0.98  88.6  26.4  1.77  0.00  0.00  0.00  0.00  0.00  0.00   2.0  0.00  0.00  0.00  0.00
 2023  87   208   125  18.8  -6.0 85.42 13.63  0.91  2.65 272.2  3.14 1.175  4.32 14165     9   906 13250  1760  4951  4398  0.33  1721  5382  3012   421 251.0 41.34  35.7 15120 .0291   580   178  1.20  0.98  83.6  20.1  6.03  0.00  0.00  0.00  0.00  0.00  0.00   2.0  0.00  0.00  0.00  0.00
 2023  88   209   126  18.0  -6.0 85.73 13.63  0.91  2.65 281.4  3.12 1.169  4.29 14443     9   909 13526  1759  5003  4596  0.34  1744  5580  3094   425 251.0 42.16  36.4 15120 .0304   571   177  1.20  0.98  78.7  18.6  6.29  0.00  0.00  0.00  0.00  0.00  0.00   2.0  0.00  0.00  0.00  0.00
 2023  89   210   127  19.3  -6.0 86.07 13.63  0.90  2.65 277.3  2.96 1.163  4.12 14718     9   911 13798  1679  5054  4808  0.35  1782  5792  3203   475 251.0 43.03  37.6 15120 .0318   562   176  1.20  0.98  73.8  17.3  5.73  0.00  0.00  0.00  0.00  0.00  0.00   2.0  0.00  0.00  0.00  0.00
 2023  90   211   128  18.7  -6.0 86.40 13.63  0.88  2.65 302.1  2.79 1.156  3.95 15016     9   914 14094  1592  5128  5014  0.36  1831  5998  3347   529 251.0 43.89  39.1 15120 .0332   553   175  1.20  0.98  68.4  15.1  4.30  0.00  0.00  0.00  0.00  0.00  0.00   2.0  0.00  0.00  0.00  0.00
 2023  91   212   129  19.4  -6.0 86.74 13.63  0.87  2.65 289.1  2.63 1.150  3.78 15302     9   916 14377  1508  5188  5227  0.36  1874  6211  3470   581 251.0 44.77  40.5 15120 .0346   545   174  1.20  0.98  63.2  14.3  3.17  0.00  0.00  0.00  0.00  0.00  0.00   2.0  0.00  0.00  0.00  0.00
 2023  92   213   130  20.8  -6.0 87.10 13.63  0.85  2.65 277.1  2.46 1.143  3.60 15576     9   919 14649  1420  5228  5457  0.37  1909  6441  3566   635 251.0 45.73  41.7 15120 .0361   536   173  1.20  0.98  58.8  13.6  2.33  0.00  0.00  0.00  0.00  0.00  0.00   2.0  0.00  0.06  0.00  0.00
 2023  93   214   131  18.6  -6.0 87.43 13.63  0.82  2.65 258.8  2.28 1.138  3.42 15832     9   921 14903  1324  5275  5662  0.38  1948  6646  3673   694 251.0 46.58  43.0 15120 .0374   528   172  1.20  0.98  54.9  14.2  1.91  0.00  0.00  0.00  0.00  0.00  0.00   2.0  0.00  0.00  0.00  0.00
 2023  94   215   132  17.1  -6.0 87.73 13.63  0.80  2.65 277.1  2.12 1.132  3.25 16106     9   924 15174  1237  5344  5850  0.39  1996  6834  3809   747 251.0 47.37  44.4 15120 .0387   522   171  1.20  0.98  50.9  12.9  1.43  0.00  0.00  0.00  0.00  0.00  0.00   2.0  0.00  0.00  0.00  0.00
 2023  95   216   133  15.9  -6.0 88.01 13.63  0.78  2.65 265.1  1.97 1.128  3.10 16368     9   926 15434  1157  5416  6023  0.39  2042  7007  3944   795 251.0 48.10  45.8 15120 .0398   515   170  1.20  0.98  47.1  12.9  1.17  0.00  0.00  0.10  0.00  0.00  0.00   2.0  0.00  0.00  0.00  0.00
 2023  96   217   134  15.9  -6.0 88.29 13.63  0.75  2.35 239.6  1.84 1.119  2.96 16605     9   928 15669  1083  5450  6197  0.40  2085  7181  4050   854 251.0 48.84  47.0 15120 .0410   510   170  1.20  0.98  43.7  11.6  0.89  0.22  0.11  0.32  0.00  0.00  0.00   2.0  0.00  0.00  0.00  0.00
 2023  97   218   135  17.3  -6.0 88.59 13.63  0.73  1.88 185.8  1.70 1.110  2.81 16789     9   930 15851  1007  5434  6388  0.40  2108  7372  4087   914 251.0 49.64  47.8 15120 .0422   503   169  1.20  0.98  41.0  11.0  0.71  0.58  0.29  0.45  0.00  0.00  0.00   2.0  0.00  0.00  0.00  0.00
 2023  98   219   136  19.2  -6.0 88.93 13.63  0.69  1.55 149.0  1.52 1.101  2.62 16936     9   930 15997   904  5380  6599  0.41  2121  7583  4083   992 251.0 50.53  48.6 15120 .0436   497   168  1.20  0.98  38.8  10.2  0.58  0.83  0.42  0.55  0.00  0.00  0.00   1.5  0.00  0.00  0.00  0.00
 2023  99   220   137  20.0  -6.0 89.28 13.63  0.64  1.38 126.4  1.33 1.091  2.42 17060     9   931 16121   793  5305  6819  0.42  2129  7803  4052  1075 251.0 51.46  49.3 15120 .0451   490   167  1.20  0.98  36.8  10.1  0.52  0.96  0.48  0.60  0.00  0.00  0.00   1.4  0.00  0.00  0.00  0.00
 2023 100   221   138  19.5  -6.0 89.62 13.63  0.58  1.42 112.4  1.13 1.081  2.21 17171     9   931 16231   680  5224  7034  0.43  2134  8018  4014  1159 251.0 52.37  49.9 15120 .0465   483   166  1.20  0.98  35.1  11.4  0.54  0.92  0.46  0.59  0.00  0.00  0.00   1.4  0.00  0.00  0.00  0.00
 2023 101   222   139  21.5  -6.0 90.01 13.63  0.51  1.31  97.1  0.94 1.071  2.01 17266     9   932 16326   571  5116  7271  0.45  2127  8255  3936  1241 251.0 53.38  50.4 15120 .0481   476   165  1.20  0.98  33.6  11.2  0.49  1.00  0.51  0.62  0.00  0.00  0.00   1.0  0.00  0.10  0.00  0.00

*DSSAT Cropping System Model Ver. 4.8.2.000 -release  AUG 22, 2025 13:14:18

*RUN   2        : WW23_G-2                  CSCER048 CIOB2301    2
 MODEL          : CSCER048 - Wheat
 EXPERIMENT     : CIOB2301 WH ROOTS ANATOMY
 DATA PATH      : C:\DSSAT48\Wheat\
 TREATMENT  2   : WW23_G-2                  CSCER048
  
@YEAR DOY   DAS   DAP TMEAN TKILL  GSTD  L#SD PARID PARUD  AWAD  LAID  SAID  CAID  TWAD SDWAD  RWAD  CWAD  LWAD  SWAD  HWAD  HIAD CHWAD  EWAD RSWAD SNWPD SNWLD SNWSD  RS%D  H#AD  HWUD  T#AD  SLAD  RDPD  PTFD  SWXD WAVRD WUPRD  WFTD  WFPD  WFGD  NFTD  NFPD  NFGD NUPRD  TFPD  TFGD VRNFD DYLFD
 2022 327    83     0  17.6  -6.0  0.00  0.00  0.00  0.00   0.0  0.00 0.000  0.00    43    43     0     0     0     0     0  0.00     0     0     0     0     0     0   0.0     0     0   150   -99  0.04  0.98  19.7  99.9  1.00  0.00  0.00  0.00  0.00  0.00  0.00   0.0  0.00  0.00  0.50  0.00
 2022 328    84     1  16.4  -6.0  5.84  0.00  0.00  0.00   0.0  0.00 0.000  0.00    43    43     0     0     0     0     0  0.00     0     0     0     0     0     0   0.0     0     0   150   -99  0.04  0.98   7.2  99.9  1.00  0.00  0.00  0.00  0.00  0.00  0.00   0.0  0.00  0.00  0.50  0.00
 2022 329    85     2  17.4  -6.0  8.40  0.00  0.00  0.00   0.0  0.00 0.000  0.00    43    41     2     0     0     0     0  0.00     0     0     0     0     0     0   0.0     0     0   150   -99  0.07  0.98   4.7  99.9  1.00  0.00  0.00  0.00  0.00  0.00  0.00   0.0  0.00  0.00  0.50  0.00
 2022 330    86     3  18.0  -6.0 10.00  0.00  0.00  0.00   0.0  0.00 0.000  0.00    43    39     3     0     0     0     0  0.00     0     0     0     0     0 .0014   0.0     0     0   150   -99  0.10  0.98   4.6  99.9  1.00  0.00  0.00  0.00  0.00  0.00  0.00   2.0  0.00  0.00  0.50  0.00
 2022 331    87     4  16.3  -6.0 10.34  0.34  0.02  0.00   0.0  0.03 0.003  0.03    43    25     5    13     8     4     0  0.00     0     0     0     0     0 .0041   0.0     0     0   150   350  0.13  0.75   5.0  99.9  1.00  0.00  0.00  0.00  0.00  0.00  0.00   0.1  0.00  0.00  0.50  0.33
 2022 332    88     5  16.1  -6.0 10.68  0.68  0.03  1.18   1.8  0.05 0.005  0.05    44    17     6    20    14     7     0  0.00     0     0     0     0 0.126 .0079   0.8     0     0   150   347  0.16  0.71   5.5  97.0  0.57  0.86  0.43  0.56  0.00  0.00  0.00   0.1  0.00  0.00  0.50  0.34
 2022 333    89     6  18.1  -6.0 11.06  1.06  0.04  0.57   1.4  0.06 0.006  0.06    45    12     8    25    17     9     0  0.00     0     0     0     0 0.328 .0135   1.5     0     0   150   347  0.19  0.70   7.2  78.3  0.45  1.00  0.55  0.66  0.38  0.38  0.38   0.3  0.00  0.00  0.50  0.34
 2022 334    90     7  18.5  -6.0 11.44  1.44  0.04  0.57   1.6  0.06 0.006  0.07    46     9     9    28    18    10     0  0.00     0     0     1     0 0.575 .0208   2.2     0     0   150   346  0.23  0.71   9.1  82.3  0.52  0.96  0.48  0.60  0.47  0.47  0.47   0.7  0.00  0.00  0.50  0.34
 2022 335    91     8  19.2  -6.0 11.84  1.84  0.04  0.62   2.0  0.07 0.007  0.07    48     9    10    29    19    10     0  0.00     0     0     1     0 0.844 .0295   2.8     0     0   150   345  0.26  0.71  11.1  89.5  0.54  0.92  0.46  0.58  0.45  0.45  0.45   1.2  0.00  0.00  0.50  0.34
 2022 336    92     9  23.0  -6.0 12.16  2.16  0.04  0.65   2.1  0.07 0.007  0.08    49     9    10    31    20    11     0  0.00     0     0     1     0 1.126 .0406   3.4     0     0   150   344  0.30  0.71  13.5  99.9  0.51  0.97  0.49  0.60  0.39  0.39  0.39   1.4  0.00  0.20  0.50  0.34
 2022 337    93    10  23.0  -6.0 12.40  2.40  0.04  0.74   2.2  0.07 0.007  0.08    51     9    10    32    21    11     0  0.00     0     0     1     0 1.419 .0521   3.9     0     0   150   343  0.35  0.71  16.1  99.9  0.55  0.91  0.45  0.58  0.35  0.35  0.35   1.5  0.00  0.20  0.50  0.34
 2022 338    94    11  22.0  -6.0 12.63  2.63  0.05  0.81   2.4  0.07 0.007  0.08    53     9    11    33    21    12     0  0.00     0     0     1     0 1.723 .0636   4.3     0     0   159   342  0.37  0.72  17.8  99.9  0.56  0.87  0.44  0.57  0.31  0.31  0.31   1.6  0.00  0.13  0.50  0.34
 2022 339    95    12  22.2  -6.0 12.86  2.86  0.05  1.50   1.9  0.08 0.008  0.08    54     9    11    35    23    12     0  0.00     0     0     1     0 1.723 .0756   3.8     0     0   209   341  0.40  0.73  19.5  99.9  1.39  0.00  0.00  0.00  0.28  0.28  0.28   2.0  0.00  0.15  0.50  0.34
 2022 340    96    13  19.7  -6.0 13.07  3.07  0.05  1.56   1.5  0.08 0.008  0.09    56     9    11    36    23    12     0  0.00     0     0     1     0 1.723 .0865   3.3     0     0   255   340  0.42  0.74  23.0  99.9  1.96  0.00  0.00  0.00  0.25  0.25  0.25   2.0  0.00  0.00  0.50  0.34
 2022 341    97    14  20.0  -6.0 21.03  3.27  0.05  1.61   2.6  0.08 0.008  0.09    58     9    12    38    25    13     0  0.00     0     0     1     0 1.723 .0978   2.9     0     0   304   339  0.44  0.74  23.7  99.9  1.21  0.00  0.00  0.07  0.22  0.22  0.22   1.7  0.00  0.00  0.50  0.34
 2022 342    98    15  20.8  -6.0 21.07  3.49  0.06  0.91   3.3  0.09 0.009  0.10    61     9    12    40    26    14     0  0.00     0     0     1     0 2.085 0.110   3.5     0     0   310   337  0.47  0.72  24.7  99.9  0.55  0.91  0.45  0.58  0.20  0.20  0.20   1.4  0.00  0.05  0.50  0.34
 2022 343    99    16  18.0  -6.0 21.08  3.68  0.06  0.90   3.8  0.09 0.009  0.10    64     9    13    42    27    15     0  0.00     0     0     2     0 2.463 0.121   3.9     0     0   312   336  0.49  0.72  26.0  99.9  0.52  0.95  0.48  0.60  0.17  0.17  0.17   1.5  0.00  0.00  0.50  0.34
 2022 344   100    17  17.0  -6.0 21.10  3.86  0.06  0.91   4.2  0.10 0.010  0.11    67     9    14    45    29    16     0  0.00     0     0     2     0 2.862 0.132   4.3     0     0   314   335  0.51  0.72  27.2  99.9  0.52  0.97  0.48  0.60  0.15  0.15  0.15   1.5  0.00  0.00  0.50  0.34
 2022 345   101    18  16.2  -6.0 21.14  4.03  0.06  1.01   4.7  0.10 0.011  0.11    71     9    14    48    31    17     0  0.00     0     0     2     0 3.282 0.143   4.6     0     0   320   333  0.52  0.72  28.3  99.9  0.56  0.88  0.44  0.57  0.13  0.13  0.13   1.5  0.00  0.00  0.50  0.34
 2022 346   102    19  16.1  -6.0 21.19  4.19  0.06  1.06   5.3  0.10 0.010  0.11    73     9    15    49    30    19     0  0.00     0     0     5     0 5.844 0.155   9.4     0     0   328   331  0.54  0.72  29.4  99.9  0.57  0.85  0.43  0.56  0.11  0.11  0.11   1.4  0.00  0.00  0.50  0.35
 2022 347   103    20  15.1  -6.0 21.31  4.35  0.06  1.32   6.1  0.10 0.010  0.11    76     9    16    52    30    21     0  0.00     0     0     6     0 7.831 0.166  12.1     0     0   347   329  0.56  0.74  78.1  99.9  0.70  0.59  0.30  0.46  0.09  0.09  0.09   2.0  0.00  0.00  0.50  0.35
 2022 348   104    21  15.2  -6.0 21.61  4.51  0.07  1.91   9.5  0.11 0.011  0.12    83     9    18    57    33    24     0  0.00     0     0     8     0 9.843 0.178  13.6     0     0   391   327  0.58  0.76  61.4  99.9  2.50  0.00  0.00  0.00  0.08  0.08  0.08   2.0  0.00  0.00  0.50  0.35
 2022 349   105    22  14.6  -6.0 21.89  4.66  0.07  1.95  10.1  0.12 0.012  0.13    90     9    19    63    36    27     0  0.00     0     0     9     0 11.80 0.191  14.5     0     0   434   324  0.59  0.76  45.9  99.9  2.73  0.00  0.00  0.00  0.06  0.06  0.06   2.0  0.00  0.00  0.49  0.35
 2022 350   106    23  12.5  -6.0 22.14  4.79  0.08  1.98   6.1  0.12 0.013  0.14    95     9    20    66    38    28     0  0.00     0     0     9     0 12.59 0.203  13.6     0     0   471   323  0.61  0.77  39.5  99.9  3.40  0.00  0.00  0.00  0.05  0.05  0.05   2.0  0.00  0.00  0.41  0.35
 2022 351   107    24  14.9  -6.0 22.44  4.95  0.09  2.00  11.3  0.14 0.015  0.16   105     9    21    75    44    31     0  0.00     0     0     8     0 12.59 0.218  11.0     0     0   516   321  0.63  0.77  37.7  99.9  1.81  0.00  0.00  0.00  0.04  0.04  0.04   1.1  0.00  0.00  0.41  0.35
 2022 352   108    25  15.5  -6.0 22.75  5.11  0.10  2.02  13.2  0.17 0.018  0.18   117     9    23    85    52    34     0  0.00     0     0     8     0 12.59 0.234   9.0     0     0   563   320  0.64  0.77  38.2  99.9  1.58  0.00  0.00  0.00  0.03  0.03  0.03   0.9  0.00  0.00  0.41  0.35
 2022 353   109    26  14.8  -6.0 23.05  5.26  0.11  1.99  15.2  0.19 0.021  0.21   130     9    25    96    59    37     0  0.00     0     0     8     0 13.09 0.252   7.9     0     0   607   318  0.66  0.77  38.9  99.9  1.34  0.00  0.00  0.00  0.04  0.04  0.04   0.9  0.00  0.00  0.40  0.35
 2022 354   110    27  16.6  -6.0 23.38  5.44  0.13  1.97  15.5  0.21 0.023  0.23   144     9    27   108    67    41     0  0.00     0     0     8     0 13.64 0.272   7.1     0     0   657   316  0.67  0.77  39.7  99.9  1.33  0.00  0.00  0.00  0.05  0.05  0.05   1.0  0.00  0.00  0.40  0.35
 2022 355   111    28  15.2  -6.0 23.84  5.60  0.14  1.99  19.5  0.24 0.027  0.27   161     9    30   122    76    46     0  0.00     0     0     8     0 14.16 0.293   6.3     0     0   725   314  0.69  0.77  40.4  99.9  1.15  0.00  0.00  0.11  0.04  0.04  0.04   0.9  0.00  0.00  0.40  0.35
 2022 356   112    29  15.3  -6.0 24.29  5.76  0.16  1.98  22.1  0.27 0.030  0.30   180     9    33   139    87    52     0  0.00     0     0     8     0 14.68 0.316   5.6     0     0   794   313  0.70  0.77  41.0  99.9  1.08  0.00  0.00  0.17  0.04  0.04  0.04   0.9  0.00  0.00  0.40  0.35
 2022 357   113    30  15.9  -6.0 24.77  5.92  0.18  1.96  24.3  0.31 0.035  0.34   202     9    36   157    99    58     0  0.00     0     0     8     0 15.22 0.343   5.1     0     0   865   311  0.72  0.77  41.6  92.2  1.04  0.00  0.00  0.20  0.05  0.05  0.05   0.9  0.00  0.00  0.40  0.35
 2022 358   114    31  16.2  -6.0 25.24  6.09  0.20  1.93  26.9  0.35 0.039  0.39   226     9    40   177   112    65     0  0.00     0     0     8     0 15.78 0.373   4.7     0     0   937   310  0.73  0.77  42.3  82.9  0.99  0.02  0.01  0.24  0.06  0.06  0.06   0.9  0.00  0.00  0.40  0.35
 2022 359   115    32  17.8  -6.0 25.71  6.28  0.22  1.78  27.8  0.39 0.044  0.43   250     9    44   198   125    72     0  0.00     0     0     9     0 16.42 0.408   4.3     0     0  1006   308  0.75  0.77  42.9  72.4  0.92  0.17  0.08  0.29  0.07  0.07  0.07   0.9  0.00  0.00  0.46  0.35
 2022 360   116    33  17.0  -6.0 26.11  6.46  0.24  1.70  29.7  0.43 0.049  0.48   277     9    48   220   140    80     0  0.00     0     0     9     0 17.04 0.446   4.0     0     0  1066   307  0.77  0.77  43.6  67.0  0.88  0.25  0.12  0.33  0.06  0.06  0.06   0.9  0.00  0.00  0.46  0.35
 2022 361   117    34  17.5  -6.0 26.47  6.64  0.26  1.63  30.8  0.47 0.054  0.53   304     9    52   243   155    88     0  0.00     0     0     9     0 17.67 0.488   3.8     0     0  1121   305  0.79  0.76  44.2  62.1  0.84  0.33  0.16  0.36  0.06  0.06  0.06   1.0  0.00  0.00  0.50  0.35
 2022 362   118    35  16.6  -6.0 26.97  6.81  0.28  1.97  25.3  0.51 0.059  0.57   326     9    56   262   167    95     0  0.00     0     0     9     0 18.28 0.531   3.6     0     0  1195   304  0.80  0.77  44.9  96.7  1.33  0.00  0.00  0.00  0.05  0.05  0.05   1.3  0.00  0.00  0.50  0.35
 2022 363   119    36  17.2  -6.0 27.48  6.99  0.29  1.99  11.8  0.52 0.061  0.59   336     9    57   270   173    97     0  0.00     0     0     9     0 18.91 0.579   3.5     0     0  1273   304  0.82  0.78  46.1  99.9  3.00  0.00  0.00  0.00  0.04  0.04  0.04   2.0  0.00  0.00  0.50  0.35
 2022 364   120    37  18.6  -6.0 27.83  7.18  0.31  1.60  33.8  0.57 0.066  0.64   366     9    62   296   189   106     0  0.00     0     0    10     0 19.33 0.633   3.2     0     0  1325   303  0.84  0.76  46.8  58.3  0.80  0.40  0.20  0.38  0.03  0.03  0.03   1.1  0.00  0.00  0.50  0.35
 2022 365   121    38  17.8  -6.0 28.10  7.37  0.33  1.50  35.6  0.62 0.072  0.69   397     9    67   321   206   116     0  0.00     0     0    11     0 20.62 0.688   3.3     0     0  1365   301  0.85  0.76  47.3  52.8  0.74  0.52  0.26  0.43  0.03  0.03  0.03   1.1  0.00  0.00  0.50  0.35
 2023   1   122    39  16.6  -6.0 28.48  7.54  0.35  1.75  38.9  0.67 0.078  0.75   431     9    73   350   224   126     0  0.00     0     0    12     0 21.84 0.744   3.3     0     0  1422   300  0.87  0.77  47.8  59.7  0.86  0.28  0.14  0.34  0.02  0.02  0.02   1.1  0.00  0.00  0.50  0.35
 2023   2   123    40  15.1  -6.0 28.94  7.70  0.38  2.04  39.7  0.72 0.085  0.81   466     9    78   380   243   137     0  0.00     0     0    13     0 22.94 0.799   3.3     0     0  1492   299  0.89  0.78  48.2  71.0  1.05  0.00  0.00  0.19  0.01  0.01  0.01   1.1  0.00  0.00  0.50  0.34
 2023   3   124    41  13.8  -6.0 29.17  7.85  0.40  1.56  44.1  0.78 0.093  0.88   505     9    84   412   264   149     0  0.00     0     0    13     0 23.95 0.853   3.2     0     0  1525   297  0.90  0.76  90.9  93.5  0.76  0.48  0.24  0.42  0.01  0.01  0.01   1.0  0.00  0.00  0.46  0.34
 2023   4   125    42  16.3  -6.0 29.67  8.02  0.43  2.06  64.2  0.87 0.104  0.98   562     9    92   461   295   167     0  0.00     0     0    15     0 25.15 0.921   3.2     0     0  1601   296  0.92  0.78  74.4  62.5  2.08  0.00  0.00  0.00  0.01  0.01  0.01   1.4  0.00  0.00  0.46  0.34
 2023   5   126    43  17.6  -6.0 30.00  8.20  0.46  2.07  72.1  0.96 0.115  1.07   624     9   102   514   326   188     0  0.00     0     0    19     0 29.16 1.003   3.7     0     0  1683   294  0.93  0.78  64.4  48.0  2.03  0.00  0.00  0.00  0.00  0.00  0.00   1.4  0.00  0.00  0.48  0.34
 2023   6   127    44  18.3  -6.0 30.00  8.39  0.49  2.07  76.0  1.05 0.127  1.18   689     9   111   569   359   210     0  0.00     0     0    23     0 33.33 1.096   4.1     0     0  1769   292  0.95  0.79  60.6  43.2  1.70  0.00  0.00  0.00  0.00  0.00  0.00   1.3  0.00  0.00  0.48  0.34
 2023   7   128    45  17.7  -6.0 30.00  8.57  0.53  2.07  78.5  1.15 0.139  1.29   757     9   121   627   394   233     0  0.00     0     0    27     0 37.39 1.195   4.3     0     0  1852   291  0.97  0.79  60.0  42.3  1.66  0.00  0.00  0.00  0.00  0.00  0.00   1.3  0.00  0.00  0.48  0.34
 2023   8   129    46  17.3  -6.0 30.00  8.75  0.56  2.07  83.3  1.25 0.153  1.40   829     9   132   689   432   256     0  0.00     0     0    30     0 41.37 1.300   4.4     0     0  1933   289  0.99  0.79  59.7  40.0  1.55  0.00  0.00  0.00  0.00  0.00  0.00   1.2  0.00  0.00  0.48  0.34
 2023   9   130    47  16.6  -6.0 30.00  8.93  0.59  2.07  92.3  1.37 0.168  1.54   910     9   144   757   475   283     0  0.00     0     0    34     0 45.22 1.410   4.4     0     0  2011   288  1.00  0.79  59.3  36.2  1.38  0.00  0.00  0.00  0.00  0.00  0.00   1.1  0.00  0.00  0.48  0.34
 2023  10   131    48  17.2  -6.0 30.00  9.11  0.62  2.07  94.6  1.49 0.184  1.68   993     9   156   829   520   309     0  0.00     0     0    36     0 48.37 1.533   4.3     0     0  2092   287  1.02  0.79  58.8  34.5  1.27  0.00  0.00  0.02  0.00  0.00  0.00   1.1  0.00  0.00  0.48  0.34
 2023  11   132    49  17.9  -6.0 30.00  9.29  0.65  2.07 104.9  1.60 0.200  1.80  1080     9   169   903   562   341     0  0.00     0     0    44     0 56.98 1.672   4.9     0     0  2176   285  1.04  0.79  58.1  30.3  1.10  0.00  0.00  0.15  0.00  0.00  0.00   1.0  0.00  0.00  0.50  0.34
 2023  12   133    50  18.4  -6.0 30.00  9.49  0.67  2.07 110.1  1.72 0.216  1.94  1172     9   182   981   607   374     0  0.00     0     0    52     0 65.87 1.828   5.3     0     0  2262   284  1.05  0.79  57.5  28.5  1.03  0.00  0.00  0.21  0.00  0.00  0.00   1.1  0.00  0.00  0.50  0.34
 2023  13   134    51  16.6  -6.0 30.00  9.66  0.70  1.96 107.0  1.84 0.232  2.08  1261     9   196  1057   653   404     0  0.00     0     0    58     0 73.96 1.979   5.4     0     0  2331   282  1.07  0.79  56.8  28.0  0.95  0.11  0.05  0.27  0.00  0.00  0.00   1.1  0.00  0.00  0.50  0.34
 2023  14   135    52  17.6  -6.0 30.00  9.84  0.72  1.73  96.9  1.95 0.247  2.19  1341     9   209  1123   692   432     0  0.00     0     0    63     0 82.56 2.152   5.6     0     0  2387   281  1.09  0.77  56.3  26.5  0.84  0.33  0.16  0.36  0.00  0.00  0.00   1.3  0.00  0.00  0.50  0.34
 2023  15   136    53  16.9  -6.0 30.00 10.02  0.73  2.07  81.9  2.03 0.259  2.29  1407     9   219  1180   725   455     0  0.00     0     0    68     0 90.79 2.328   5.7     0     0  2466   280  1.10  0.79  56.1  38.9  1.15  0.00  0.00  0.12  0.00  0.00  0.00   1.5  0.00  0.00  0.50  0.34
 2023  16   137    54  17.0  -6.0 30.00 10.20  0.75  1.51  88.5  2.12 0.271  2.39  1478     9   231  1238   759   479     0  0.00     0     0    73     0 100.5 2.514   5.9     0     0  2502   279  1.12  0.77  55.8  26.0  0.73  0.55  0.27  0.44  0.00  0.00  0.00   1.4  0.00  0.00  0.50  0.33
 2023  17   138    55  14.1  -6.0 30.00 10.34  0.75  2.07  37.2  2.15 0.275  2.42  1504     9   236  1259   772   488     0  0.00     0     0    75     0 108.6 2.677   6.0     0     0  2568   279  1.14  0.79  56.5  91.8  2.41  0.00  0.00  0.00  0.00  0.00  0.00   2.0  0.00  0.00  0.47  0.33
 2023  18   139    56  13.8  -6.0 30.00 10.49  0.77  1.51  87.5  2.24 0.289  2.53  1575     9   248  1319   808   511     0  0.00     0     0    78     0 116.5 2.840   5.9     0     0  2598   277  1.15  0.77  56.0  27.9  0.73  0.54  0.27  0.44  0.00  0.00  0.00   1.4  0.00  0.00  0.43  0.33
 2023  19   140    57  14.2  -6.0 30.00 10.64  0.78  1.40  82.2  2.33 0.301  2.63  1641     9   259  1373   841   532     0  0.00     0     0    81     0 124.7 3.016   5.9     0     0  2621   277  1.16  0.76  55.6  27.0  0.68  0.65  0.32  0.48  0.00  0.00  0.00   1.5  0.00  0.00  0.41  0.33
 2023  20   141    58  13.8  -6.0 30.00 10.78  0.78  1.19  79.2  2.36 0.307  2.67  1692     9   271  1413   856   557     0  0.00     0     0    95     0 144.5 3.194   6.7     0     0  2630   276  1.18  0.75 110.9  47.4  0.57  0.85  0.43  0.56  0.00  0.00  0.00   1.6  0.00  0.00  0.37  0.33
 2023  21   142    59  14.1  -6.0 30.00 10.93  0.81  2.07 139.8  2.53 0.331  2.87  1815     9   288  1518   924   595     0  0.00     0     0    96     0 150.2 3.385   6.3     0     0  2696   274  1.19  0.80  94.2  39.7  3.36  0.00  0.00  0.00  0.00  0.00  0.00   2.0  0.00  0.00  0.34  0.33
 2023  22   143    60  14.1  -6.0 30.00 11.07  0.83  2.07 147.3  2.74 0.359  3.10  1950     9   306  1636  1004   632     0  0.00     0     0    91     0 150.2 3.588   5.6     0     0  2762   273  1.20  0.80  84.8  33.8  3.37  0.00  0.00  0.00  0.00  0.00  0.00   1.7  0.00  0.00  0.31  0.33
 2023  23   144    61  12.6  -6.0 30.00 11.20  0.85  2.07 128.5  2.87 0.379  3.25  2056     9   321  1726  1057   670     0  0.00     0     0    99     0 162.3 3.779   5.7     0     0  2821   272  1.22  0.80  82.2  39.1  3.90  0.00  0.00  0.00  0.00  0.00  0.00   1.9  0.00  0.00  0.24  0.33
 2023  24   145    62  13.1  -6.0 30.00 11.34  0.86  2.07 155.1  3.03 0.403  3.44  2185     9   340  1837  1122   715     0  0.00     0     0   107     0 175.0 3.990   5.8     0     0  2821   270  1.22  0.80  79.0  30.8  3.10  0.00  0.00  0.00  0.00  0.00  0.00   1.9  0.00  0.00  0.18  0.33
 2023  25   146    63  14.5  -6.0 30.00 11.49  0.87  2.07 158.9  3.20 0.427  3.62  2317     9   358  1950  1189   762     0  0.00     0     0   116     0 189.1 4.236   5.9     0     0  2821   269  1.22  0.80  75.6  27.6  2.72  0.00  0.00  0.00  0.00  0.00  0.00   1.9  0.00  0.00  0.16  0.32
 2023  26   147    64  15.7  -6.0 30.00 11.65  0.89  2.07 148.8  3.39 0.454  3.84  2450     9   376  2065  1265   800     0  0.00     0     0   114     0 193.0 4.516   5.5     0     0  2821   268  1.22  0.80  72.4  27.6  2.70  0.00  0.00  0.00  0.00  0.00  0.00   2.0  0.00  0.00  0.00  0.00
 2023  27   148    65  12.1  -6.0 30.00 11.78  0.90  2.07 120.8  3.54 0.477  4.02  2557     9   390  2159  1329   830     0  0.00     0     0   111     0 196.6 4.745   5.1     0     0  2821   267  1.22  0.80  70.0  35.0  3.15  0.00  0.00  0.00  0.00  0.00  0.00   2.0  0.00  0.00  0.00  0.00
 2023  28   149    66  15.6  -6.0 30.00 11.94  0.91  2.07 136.2  3.71 0.501  4.21  2678     9   406  2264  1397   866     0  0.00     0     0   110     0 201.3 5.049   4.9     0     0  2821   265  1.22  0.80  67.2  27.5  2.31  0.00  0.00  0.00  0.00  0.00  0.00   2.0  0.00  0.00  0.00  0.00
 2023  29   150    67  14.4  -6.0 30.00 12.09  0.92  2.07 167.0  3.91 0.532  4.44  2828     9   425  2394  1480   914     0  0.00     0     0   112     0 205.6 5.342   4.7     0     0  2821   264  1.22  0.81  64.1  21.9  1.69  0.00  0.00  0.00  0.00  0.00  0.00   1.9  0.00  0.00  0.00  0.00
 2023  30   151    68  14.6  -6.0 30.02 12.25  0.93  2.07 150.9  4.08 0.559  4.64  2962     9   442  2512  1552   960     0  0.00     0     0   113     0 209.9 5.651   4.5     0     0  2821   263  1.22  0.81  61.4  23.1  1.59  0.00  0.00  0.00  0.00  0.00  0.00   2.0  0.00  0.00  0.00  0.00
 2023  31   152    69  14.5  -6.0 30.72 12.40  0.94  2.07 156.1  4.26 0.587  4.84  3102     9   459  2635  1621  1014     0  0.00     0     0   115     0 214.3 5.971   4.4     0     0  2821   263  1.22  0.81  58.5  21.3  1.34  0.00  0.00  0.00  0.00  0.00  0.00   2.0  0.00  0.00  0.00  0.00
 2023  32   153    70  13.4  -6.0 31.35 12.54  0.94  2.07 117.6  4.39 0.609  5.00  3207     9   472  2726  1671  1056     0  0.00     0     0   115     0 218.3 6.278   4.2     0     0  2821   263  1.22  0.82  56.5  28.2  1.59  0.00  0.00  0.00  0.00  0.00  0.00   2.0  0.00  0.00  0.00  0.00
 2023  33   154    71  15.9  -6.0 32.11 12.70  0.95  2.03 158.4  4.56 0.637  5.20  3348     9   489  2851  1739  1112     0  0.00     0     0   119     0 223.1 6.652   4.2     0     0  2821   262  1.22  0.82  53.5  18.2  0.98  0.05  0.02  0.25  0.00  0.00  0.00   2.0  0.00  0.00  0.00  0.00
 2023  34   155    72  16.9  -6.0 32.91 12.88  0.95  1.67 131.0  4.69 0.660  5.35  3463     9   504  2951  1792  1159     0  0.00     0     0   122     0 228.2 7.063   4.1     0     0  2821   262  1.22  0.80  96.3  31.5  0.81  0.39  0.19  0.38  0.00  0.00  0.00   2.0  0.00  0.00  0.00  0.00
 2023  35   156    73  16.9  -6.0 33.71 13.05  0.96  2.07 168.9  4.86 0.690  5.55  3615     9   522  3084  1863  1222     0  0.00     0     0   128     0 233.3 7.489   4.2     0     0  2821   261  1.22  0.82  89.4  28.0  3.84  0.00  0.00  0.00  0.00  0.00  0.00   2.0  0.00  0.00  0.00  0.00
 2023  36   157    74  18.1  -6.0 34.58 13.24  0.96  2.07 169.8  5.03 0.720  5.75  3767     9   539  3219  1933  1286     0  0.00     0     0   135     0 238.8 7.963   4.2     0     0  2821   260  1.22  0.83  83.4  25.3  4.65  0.00  0.00  0.00  0.00  0.00  0.00   2.0  0.00  0.00  0.00  0.00
 2023  37   158    75  16.7  -6.0 35.37 13.42  0.97  2.07 163.5  5.18 0.749  5.93  3913     9   555  3350  1999  1350     0  0.00     0     0   142     0 243.9 8.412   4.2     0     0  2821   259  1.22  0.83  80.1  26.2  5.10  0.00  0.00  0.00  0.00  0.00  0.00   2.0  0.00  0.00  0.00  0.00
 2023  38   159    76  16.2  -6.0 36.15 13.59  0.97  2.07 178.2  5.34 0.781  6.13  4074     9   572  3493  2071  1422     0  0.00     0     0   149     0 248.9 8.862   4.3     0     0  2821   258  1.22  0.83  76.6  23.4  4.51  0.00  0.00  0.00  0.00  0.00  0.00   2.0  0.00  0.00  0.00  0.00
 2023  39   160    77  18.1  -6.0 37.01 13.78  0.97  2.07 183.8  5.51 0.814  6.32  4240     9   590  3641  2144  1497     0  0.00     0     0   159     0 254.5 9.382   4.4     0     0  2821   257  1.22  0.84  72.8  20.4  3.71  0.00  0.00  0.00  0.00  0.00  0.00   2.0  0.00  0.00  0.00  0.00
 2023  40   161    78  15.1  -6.0 37.73 13.93  0.97  2.07 186.5  5.67 0.848  6.52  4409     9   608  3793  2218  1576     0  0.00     0     0   168     0 259.1 9.827   4.4     0     0  2821   256  1.22  0.84  69.2  20.2  3.08  0.00  0.00  0.00  0.00  0.00  0.00   2.0  0.00  0.00  0.00  0.00
 2023  41   162    79  17.1  -6.0 38.55 14.11  0.98  2.07 164.8  5.81 0.878  6.69  4558     9   623  3926  2280  1646     0  0.00     0     0   175     0 264.4 10.35   4.5     0     0  2821   255  1.22  0.84  65.9  20.8  2.71  0.00  0.00  0.00  0.00  0.00  0.00   2.0  0.00  0.00  0.00  0.00
 2023  42   163    80  14.0  -6.0 39.21 14.26  0.98  2.07  59.8  5.87 0.891  6.76  4609     9   628  3973  2298  1675     0  0.00     0     0   169     0 268.7 10.78   4.3     0     0  2821   256  1.22  0.84  64.8  61.3  6.70  0.00  0.00  0.00  0.00  0.00  0.00   2.0  0.00  0.00  0.00  0.00
 2023  43   164    81  15.7  -6.0 39.96 14.42  0.98  2.07 168.3  6.01 0.921  6.93  4762     9   643  4110  2360  1750     0  0.00     0     0   178     0 273.6 11.28   4.3     0     0  2821   254  1.22  0.85  61.6  19.9  2.15  0.00  0.00  0.00  0.00  0.00  0.00   2.0  0.00  0.00  0.00  0.00
 2023  44   165    82  13.9  -6.0 40.65 14.57  0.98  2.07 113.8  6.10 0.943  7.04  4864     9   653  4203  2400  1803     0  0.00     0     0   179     0 277.9 11.72   4.3     0     0  2821   254  1.22  0.85  59.5  29.8  2.78  0.00  0.00  0.00  0.00  0.00  0.00   2.0  0.00  0.00  0.00  0.00
 2023  45   166    83  13.7  -6.0 41.34 14.57  0.98  2.72 222.6  6.06 0.971  7.03  5073     9   672  4393  2453  1928     0  0.00     0     0   247    11 277.9 12.17   5.6     0     0  2821   247  1.22  0.85  56.4  18.7  1.63  0.00  0.00  0.00  0.00  0.00  0.00   2.0  0.00  0.00  0.00  0.00
 2023  46   167    84  14.2  -6.0 42.05 14.57  0.98  2.72 229.1  6.02 1.000  7.02  5289     9   691  4589  2461  2105     0  0.00     0     0   318    23 277.9 12.65   7.0     0     0  2821   244  1.22  0.86  56.9  18.3  1.34  0.00  0.00  0.00  0.00  0.00  0.00   2.0  0.00  0.00  0.00  0.00
 2023  47   168    85  14.1  -6.0 42.76 14.57  0.98  2.72 253.0  5.94 1.032  6.98  5527     9   712  4807  2449  2323     0  0.00     0     0   395    35 277.9 13.14   8.3     0     0  2755   243  1.22  0.86  53.3  15.6  1.58  0.00  0.00  0.00  0.00  0.00  0.00   2.0  0.00  0.00  0.00  0.00
 2023  48   169    86  12.8  -6.0 43.40 14.57  0.98  2.72 182.2  5.88 1.055  6.94  5699     9   726  4964  2438  2480     0  0.00     0     0   453    46 277.9 13.59   9.2     0     0  2697   241  1.22  0.86  97.5  40.2  1.61  0.00  0.00  0.00  0.00  0.00  0.00   2.0  0.00  0.00  0.00  0.00
 2023  49   170    87  17.4  -6.0 44.27 14.57  0.98  2.72 162.1  5.79 1.073  6.87  5852     9   739  5105  2421  2623     0  0.00     0     0   510    60 277.9 14.22  10.1     0     0  2620   239  1.21  0.87 103.9  44.4  7.84  0.00  0.00  0.00  0.00  0.00  0.00   2.0  0.00  0.00  0.00  0.00
 2023  50   171    88  18.8  -6.0 45.21 14.57  0.98  2.72 142.0  5.70 1.087  6.79  5986     9   749  5228  2403  2749     0  0.00     0     0   563    76 277.9 14.92  10.9     0     0  2539   237  1.21  0.87  90.6  43.0  9.91  0.00  0.00  0.00  0.00  0.00  0.00   2.0  0.00  0.00  0.00  0.00
 2023  51   172    89  18.3  -6.0 46.13 14.57  0.97  2.72 174.9  5.61 1.107  6.72  6151     9   761  5382  2387  2903     0  0.00     0     0   624    91 277.9 15.60  11.8     0     0  2463   235  1.21  0.88  84.5  32.8  8.54  0.00  0.00  0.00  0.00  0.00  0.00   2.0  0.00  0.00  0.00  0.00
 2023  52   173    90  16.3  -6.0 46.94 14.57  0.97  2.72 161.4  5.53 1.125  6.66  6304     9   772  5524  2372  3046     0  0.00     0     0   681   105 277.9 16.22  12.6     0     0  2398   233  1.21  0.88  82.5  36.6  9.93  0.00  0.00  0.00  0.00  0.00  0.00   2.0  0.00  0.00  0.00  0.00
 2023  53   174    91  15.3  -6.0 47.71 14.57  0.97  2.72 265.6  5.46 1.160  6.62  6557     9   790  5759  2358  3282     0  0.00     0     0   765   118 277.9 16.81  13.6     0     0  2338   231  1.21  0.88  78.7  21.7  6.24  0.00  0.00  0.00  0.00  0.00  0.00   2.0  0.00  0.00  0.00  0.00
 2023  54   175    92  16.1  -6.0 48.52 14.57  0.97  2.72 266.5  5.38 1.195  6.57  6811     9   807  5995  2342  3521     0  0.00     0     0   850   132 277.9 17.45  14.5     0     0  2277   230  1.21  0.89  74.7  19.8  5.73  0.00  0.00  0.00  0.00  0.00  0.00   2.0  0.00  0.00  0.00  0.00
 2023  55   176    93  13.1  -6.0 49.18 14.57  0.97  2.72 171.3  5.32 1.217  6.53  6974     9   818  6148  2331  3604     0  0.00    70    70   907   144 277.9 17.98  15.1     0     0  2229   228  1.21  0.89  72.3  31.9  7.91  0.00  0.00  0.00  0.00  0.00  0.00   2.0  0.00  0.00  0.00  0.00
 2023  56   177    94  15.6  -6.0 49.96 14.57  0.97  2.72 168.4  5.24 1.237  6.48  7135     9   827  6299  2314  3673     0  0.00   154   138   966   157 277.9 18.62  15.7     0     0  2173   226  1.21  0.90  69.8  29.7  6.60  0.00  0.00  0.00  0.00  0.00  0.00   2.0  0.00  0.00  0.00  0.00
 2023  57   178    95  17.0  -6.0 53.97 14.57  0.97  2.72 273.2  5.16 1.273  6.43  7397     9   843  6545  2297  3791     0  0.00   285   250  1055   172 277.9 19.32  16.5     0     0  2114   225  1.21  0.90  65.7  16.9  3.41  0.00  0.00  0.00  0.00  0.00  0.00   2.0  0.00  0.00  0.00  0.00
 2023  58   179    96  16.0  -6.0 57.90 14.57  0.96  2.72 272.7  5.10 1.306  6.41  7659     9   857  6794  2289  3894     0  0.00   430   363  1138   181 277.9 20.00  17.2     0     0  2061   223  1.21  0.91  61.6  16.0  2.68  0.00  0.00  0.00  0.00  0.00  0.00   2.0  0.00  0.00  0.00  0.00
 2023  59   180    97  16.1  -6.0 65.36 14.57  0.96  2.72 240.9  5.05 1.334  6.38  7892     9   868  7016  2280  3980     0  0.00   565   464  1214   191 277.9 20.69  17.8     0     0  2008   221  1.21  0.92  58.0  16.9  2.35  0.00  0.00  0.00  0.00  0.00  0.00   2.0  0.00  0.00  0.00  0.00
 2023  60   181    98  12.6  -6.0 70.30 14.57  0.96  2.72  82.4  5.00 1.339  6.34  7971     9   870  7093  2274  3991     0  0.00   630   499  1245   198 277.9 21.24  18.1     0     0  1969   220  1.21  0.93  56.8  53.5  6.07  0.00  0.00  0.00  0.00  0.00  0.00   2.0  0.00  0.00  0.00  0.00
 2023  61   182    99  14.6  -6.0 71.01 14.57  0.96  2.72 282.1  4.95 1.376  6.32  8246     9   879  7358  2265  4117     5  0.00   765   624  1329   206 277.9 21.87  18.6 16341 .0000  1924   218  1.21  0.94  52.9  13.9  1.58  0.00  0.00  0.00  0.00  0.00  0.00   2.0  0.00  0.00  0.00  0.00
 2023  62   183   100  14.9  -6.0 71.74 14.57  0.96  2.72 288.2  4.90 1.414  6.31  8528     9   887  7633  2257  4213    21  0.00   928   765  1404   215 277.9 22.53  19.0 16341 .0001  1879   217  1.21  0.95  48.6  12.3  1.19  0.00  0.00  0.09  0.00  0.00  0.00   2.0  0.00  0.00  0.00  0.00
 2023  63   184   101  14.5  -6.0 72.44 14.57  0.96  2.46 262.1  4.85 1.448  6.29  8785     9   894  7883  2248  4286    47  0.01  1079   905  1461   223 277.9 23.17  19.2 16341 .0003  1837   216  1.21  0.95  44.7  11.2  0.91  0.19  0.09  0.30  0.00  0.00  0.00   2.0  0.00  0.00  0.00  0.00
 2023  64   185   102  15.5  -6.0 73.20 14.57  0.96  1.87 200.9  4.79 1.472  6.26  8980     9   900  8072  2239  4318    88  0.01  1194  1033  1485   233 277.9 23.86  19.2 16341 .0005  1793   214  1.21  0.94  41.5  10.0  0.69  0.63  0.31  0.47  0.00  0.00  0.00   2.0  0.00  0.00  0.00  0.00
 2023  65   186   103  16.9  -6.0 74.02 14.57  0.95  1.57 162.6  4.64 1.461  6.10  9138     9   905  8225  2183  4364   150  0.02  1256  1094  1615   271 277.9 24.62  20.7 16341 .0009  1747   212  1.21  0.94  38.9   9.5  0.58  0.85  0.42  0.56  0.00  0.00  0.00   2.0  0.00  0.00  0.00  0.00
 2023  66   187   104  16.9  -6.0 74.84 14.57  0.95  1.72 138.6  4.58 1.451  6.03  9274     9   908  8358  2173  4403   228  0.03  1273  1172  1680   281 277.9 25.39  21.4 16341 .0014  1702   211  1.21  0.96  89.1  28.3  0.63  0.73  0.37  0.51  0.00  0.00  0.00   2.0  0.00  0.00  0.00  0.00
 2023  67   188   105  18.4  -6.0 75.74 14.57  0.95  2.72 255.3  4.52 1.440  5.96  9526     9   910  8608  2161  4509   329  0.04  1316  1274  1840   292 277.9 26.22  23.0 16341 .0020  1655   209  1.21  0.98  85.0  22.4  4.37  0.00  0.00  0.00  0.00  0.00  0.00   2.0  0.00  0.00  0.00  0.00
 2023  68   189   106  19.7  -6.0 76.70 14.57  0.94  2.72 277.9  4.45 1.429  5.88  9801     9   912  8880  2148  4612   459  0.05  1358  1403  1995   304 277.9 27.12  24.6 16341 .0028  1606   207  1.21  0.98  80.3  19.0  5.80  0.00  0.00  0.00  0.00  0.00  0.00   2.0  0.00  0.00  0.00  0.00
 2023  69   190   107  19.4  -6.0 77.65 14.57  0.94  2.72 288.8  4.39 1.417  5.81 10087     9   915  9163  2136  4708   607  0.07  1397  1551  2141   316 277.9 28.00  26.0 16341 .0037  1559   205  1.21  0.98  75.5  17.3  5.90  0.00  0.00  0.00  0.00  0.00  0.00   2.0  0.00  0.00  0.00  0.00
 2023  70   191   108  19.6  -6.0 78.61 14.57  0.94  2.72 284.2  4.32 1.406  5.73 10368     9   918  9442  2123  4784   779  0.08  1428  1723  2260   327 277.9 28.90  27.1 16341 .0048  1514   204  1.21  0.98  70.8  16.4  5.17  0.00  0.00  0.00  0.00  0.00  0.00   2.0  0.00  0.00  0.00  0.00
 2023  71   192   109  22.8  -6.0 79.71 14.57  0.94  2.72 282.2  4.25 1.394  5.64 10647     9   920  9718  2107  4822  1002  0.10  1446  1947  2326   341 277.9 29.95  27.8 16341 .0061  1463   202  1.21  0.98  65.8  14.5  3.58  0.00  0.00  0.00  0.00  0.00  0.00   2.0  0.00  0.18  0.00  0.00
 2023  72   193   110  22.0  -6.0 80.31 14.57  0.93  2.72 287.7  4.18 1.382  5.56 10931     9   922 10000  2092  4848  1246  0.12  1458  2191  2378   355 277.9 30.96  28.3 16341 .0076  1417   200  1.21  0.98  60.7  13.4  2.58  0.00  0.00  0.00  0.00  0.00  0.00   2.0  0.00  0.13  0.00  0.00
 2023  73   194   111  19.8  -6.0 80.69 14.57  0.93  2.72 294.4  4.14 1.371  5.51 11222     9   925 10289  2091  4887  1477  0.14  1474  2421  2441   360 277.9 31.87  28.9 16341 .0090  1376   198  1.21  0.98  55.7  12.5  1.91  0.00  0.00  0.00  0.00  0.00  0.00   2.0  0.00  0.00  0.00  0.00
 2023  74   195   112  19.5  -6.0 81.07 14.57  0.93  2.72 258.4  4.10 1.361  5.46 11478     9   927 10542  2089  4904  1703  0.16  1480  2648  2472   365 277.9 32.77  29.2 16341 .0104  1338   196  1.21  0.98  51.4  13.2  1.61  0.00  0.00  0.00  0.00  0.00  0.00   2.0  0.00  0.00  0.00  0.00
 2023  75   196   113  20.5  -6.0 81.46 14.57  0.93  2.72 236.4  4.06 1.351  5.41 11711     9   929 10774  2087  4897  1942  0.18  1478  2886  2471   370 277.9 33.72  29.2 16341 .0119  1299   195  1.21  0.98  47.5  13.2  1.33  0.00  0.00  0.00  0.00  0.00  0.00   2.0  0.00  0.03  0.00  0.00
 2023  76   197   114  20.0  -6.0 81.85 14.57  0.93  2.72 100.9  4.02 1.341  5.36 11810     9   929 10872  2085  4797  2175  0.20  1440  3120  2341   375 277.9 34.65  28.1 16341 .0133  1263   193  1.21  0.98 100.7  67.5  2.48  0.00  0.00  0.00  0.00  0.00  0.00   2.0  0.00  0.00  0.00  0.00
 2023  77   198   115  19.0  -6.0 82.21 14.57  0.92  2.72 274.5  3.98 1.332  5.32 12082     9   932 11141  2083  4829  2397  0.22  1453  3341  2393   380 277.9 35.54  28.6 16341 .0147  1229   191  1.20  0.98 117.3  29.1  5.35  0.00  0.00  0.00  0.00  0.00  0.00   2.0  0.00  0.00  0.00  0.00
 2023  78   199   116  19.0  -6.0 82.58 14.57  0.92  2.72 287.8  3.95 1.323  5.27 12366     9   934 11424  2080  4870  2619  0.23  1469  3563  2459   385 277.9 36.43  29.2 16341 .0160  1197   190  1.20  0.98 100.2  23.6  6.26  0.00  0.00  0.00  0.00  0.00  0.00   2.0  0.00  0.00  0.00  0.00
 2023  79   200   117  19.0  -6.0 82.95 14.57  0.92  2.72 284.8  3.91 1.314  5.23 12648     9   937 11703  2078  4910  2841  0.24  1485  3785  2521   390 277.9 37.32  29.8 16341 .0174  1166   188  1.20  0.98  85.6  20.5  6.09  0.00  0.00  0.00  0.00  0.00  0.00   2.0  0.00  0.00  0.00  0.00
 2023  80   201   118  20.1  -6.0 83.33 14.57  0.92  2.72 281.7  3.88 1.305  5.18 12926     9   939 11979  2075  4938  3075  0.26  1496  4019  2568   395 277.9 38.26  30.2 16341 .0188  1134   187  1.20  0.98  80.3  19.3  6.61  0.00  0.00  0.00  0.00  0.00  0.00   2.0  0.00  0.01  0.00  0.00
 2023  81   202   119  20.2  -6.0 83.72 14.57  0.92  2.72 281.1  3.84 1.295  5.13 13204     9   942 12254  2072  4965  3310  0.27  1507  4255  2613   400 277.9 39.21  30.6 16341 .0203  1104   185  1.20  0.98  75.4  17.7  6.08  0.00  0.00  0.00  0.00  0.00  0.00   2.0  0.00  0.02  0.00  0.00
 2023  82   203   120  19.6  -6.0 84.10 14.57  0.92  2.72 291.7  3.80 1.287  5.09 13493     9   944 12540  2070  5004  3538  0.28  1522  4483  2676   406 277.9 40.13  31.1 16341 .0217  1075   184  1.20  0.98  70.5  16.3  5.42  0.00  0.00  0.00  0.00  0.00  0.00   2.0  0.00  0.00  0.00  0.00
 2023  83   204   121  17.6  -6.0 84.44 14.57  0.91  2.72 311.0  3.77 1.279  5.05 13800     9   947 12845  2068  5074  3743  0.29  1549  4688  2781   410 277.9 40.96  32.0 16341 .0229  1050   182  1.20  0.98  65.4  14.7  3.93  0.00  0.00  0.00  0.00  0.00  0.00   2.0  0.00  0.00  0.00  0.00
 2023  84   205   122  17.1  -6.0 84.77 14.57  0.91  2.72 298.0  3.74 1.272  5.01 14095     9   950 13137  2065  5140  3942  0.30  1575  4887  2878   415 277.9 41.77  32.8 16341 .0241  1027   181  1.20  0.98  60.7  14.4  3.06  0.00  0.00  0.00  0.00  0.00  0.00   2.0  0.00  0.00  0.00  0.00
 2023  85   206   123  17.5  -6.0 85.10 14.57  0.91  2.72 299.9  3.71 1.265  4.97 14392     9   953 13431  2063  5203  4146  0.31  1600  5090  2973   419 277.9 42.60  33.5 16341 .0254  1004   180  1.20  0.98  56.3  13.1  2.22  0.00  0.00  0.00  0.00  0.00  0.00   2.0  0.00  0.00  0.00  0.00
 2023  86   207   124  17.5  -6.0 85.44 14.57  0.91  2.72 232.5  3.68 1.257  4.94 14622     9   955 13659  2060  5218  4350  0.32  1606  5295  3001   424 277.9 43.44  33.8 16341 .0266   982   179  1.20  0.98  88.9  26.7  2.12  0.00  0.00  0.00  0.00  0.00  0.00   2.0  0.00  0.00  0.00  0.00
 2023  87   208   125  18.8  -6.0 85.80 14.57  0.91  2.72 279.0  3.65 1.250  4.90 14898     9   957 13932  2056  5257  4569  0.33  1621  5513  3062   429 277.9 44.33  34.3 16341 .0280   959   177  1.20  0.98  83.7  20.3  5.97  0.00  0.00  0.00  0.00  0.00  0.00   2.0  0.00  0.00  0.00  0.00
 2023  88   209   126  18.0  -6.0 86.15 14.57  0.90  2.72 288.2  3.62 1.243  4.86 15183     9   960 14215  2054  5308  4778  0.34  1641  5723  3139   434 277.9 45.20  34.9 16341 .0292   938   176  1.20  0.98  78.8  18.8  6.70  0.00  0.00  0.00  0.00  0.00  0.00   2.0  0.00  0.00  0.00  0.00
 2023  89   210   127  19.3  -6.0 86.52 14.57  0.90  2.72 284.0  3.58 1.235  4.82 15464     9   962 14493  2050  5345  5003  0.35  1656  5947  3198   439 277.9 46.12  35.3 16341 .0306   916   175  1.20  0.98  73.9  17.5  6.24  0.00  0.00  0.00  0.00  0.00  0.00   2.0  0.00  0.00  0.00  0.00
 2023  90   211   128  18.7  -6.0 86.88 14.57  0.90  2.72 312.8  3.55 1.228  4.78 15773     9   965 14799  2047  5407  5221  0.35  1680  6165  3292   444 277.9 47.02  36.0 16341 .0319   895   174  1.20  0.98  68.6  15.0  4.79  0.00  0.00  0.00  0.00  0.00  0.00   2.0  0.00  0.00  0.00  0.00
[...]
 2023  36   157    64  18.1  -6.0 32.63  7.64  0.58  0.64  31.5  1.14 0.144  1.28   849    15   164   669   397   272     0  0.00     0     0    53     0 124.9 2.573   8.0     0     0   449   287  0.87  0.75  37.0  19.8  0.30  1.00  0.70  0.77  0.00  0.00  0.00   2.0  0.00  0.00  0.00  0.00
 2023  37   158    65  16.7  -6.0 33.43  7.75  0.59  0.68  32.5  1.16 0.148  1.31   873    15   169   688   407   282     0  0.00     0     0    56     0 130.3 2.710   8.1     0     0   449   286  0.88  0.75  37.1  21.3  0.32  1.00  0.68  0.76  0.00  0.00  0.00   2.0  0.00  0.00  0.00  0.00
 2023  38   159    66  16.2  -6.0 34.20  7.86  0.60  0.63  32.8  1.18 0.152  1.34   897    15   174   708   416   292     0  0.00     0     0    58     0 135.9 2.847   8.2     0     0   449   284  0.89  0.75  37.3  19.8  0.29  1.00  0.71  0.78  0.00  0.00  0.00   2.0  0.00  0.00  0.00  0.00
 2023  39   160    67  18.1  -6.0 35.06  7.98  0.60  0.57  31.0  1.20 0.155  1.36   919    15   178   725   424   301     0  0.00     0     0    61     0 141.6 3.005   8.4     0     0   449   283  0.90  0.75  37.5  18.3  0.27  1.00  0.73  0.80  0.00  0.00  0.00   2.0  0.00  0.00  0.00  0.00
 2023  40   161    68  15.1  -6.0 35.78  8.08  0.61  0.58  32.4  1.22 0.159  1.38   942    15   183   744   433   311     0  0.00     0     0    63     0 147.3 3.140   8.5     0     0   449   282  0.91  0.76  37.7  19.0  0.27  1.00  0.73  0.79  0.00  0.00  0.00   2.0  0.00  0.00  0.00  0.00
 2023  41   162    69  17.1  -6.0 36.60  8.19  0.61  0.62  30.7  1.24 0.163  1.40   964    15   187   762   440   322     0  0.00     0     0    65     0 153.2 3.296   8.6     0     0   449   281  0.92  0.76  38.0  20.6  0.29  1.00  0.71  0.78  0.00  0.00  0.00   2.0  0.00  0.00  0.00  0.00
 2023  42   163    70  14.0  -6.0 37.27  8.29  0.62  1.83  32.9  1.28 0.170  1.45   994    15   190   789   458   331     0  0.00     0     0    62     0 153.2 3.427   7.9     0     0   444   279  0.93  0.82  38.2  61.8  0.85  0.30  0.15  0.35  0.00  0.00  0.00   2.0  0.00  0.00  0.00  0.00
 2023  43   164    71  15.7  -6.0 38.01  8.39  0.63  0.60  30.9  1.29 0.173  1.46  1016    15   195   806   464   342     0  0.00     0     0    65     0 159.4 3.577   8.1     0     0   439   277  0.94  0.77  38.4  20.8  0.28  1.00  0.72  0.79  0.00  0.00  0.00   2.0  0.00  0.00  0.00  0.00
 2023  44   165    72  13.9  -6.0 38.67  8.48  0.63  0.91  32.0  1.30 0.177  1.48  1039    15   199   825   471   354     0  0.00     0     0    68     0 165.6 3.712   8.3     0     0   434   276  0.95  0.79  38.6  32.5  0.43  1.00  0.57  0.67  0.00  0.00  0.00   2.0  0.00  0.00  0.00  0.00
 2023  45   166    73  13.7  -6.0 39.33  8.57  0.63  0.59  31.2  1.31 0.181  1.49  1061    15   203   843   477   366     0  0.00     0     0    71     0 172.0 3.848   8.5     0     0   430   274  0.96  0.77  38.8  21.5  0.28  1.00  0.72  0.79  0.00  0.00  0.00   2.0  0.00  0.00  0.00  0.00
 2023  46   167    74  14.2  -6.0 40.00  8.67  0.63  0.56  30.7  1.32 0.184  1.50  1082    15   207   860   483   377     0  0.00     0     0    74     0 178.3 3.991   8.6     0     0   426   273  0.97  0.77  40.0  21.5  0.26  1.00  0.74  0.80  0.00  0.00  0.00   2.0  0.00  0.00  0.00  0.00
 2023  47   168    75  14.1  -6.0 40.71  8.67  0.62  0.64  38.7  1.28 0.185  1.47  1117    15   212   890   471   410     0  0.00     0     0    92     9 178.3 4.137  10.4     0     0   422   272  0.98  0.77  39.2  18.8  0.24  1.00  0.76  0.81  0.00  0.00  0.00   2.0  0.00  0.00  0.00  0.00
 2023  48   169    76  12.8  -6.0 41.35  8.67  0.61  0.88  37.6  1.24 0.187  1.43  1152    15   216   920   460   443     0  0.00     0     0   109    17 178.3 4.273  12.1     0     0   418   271  0.99  0.79  39.4  27.2  0.33  1.00  0.67  0.74  0.00  0.00  0.00   2.0  0.00  0.00  0.00  0.00
 2023  49   170    77  17.4  -6.0 42.22  8.67  0.60  0.92  34.5  1.21 0.187  1.39  1183    15   221   947   447   474     0  0.00     0     0   126    26 178.3 4.461  13.7     0     0   413   270  1.00  0.79  45.6  33.3  0.35  1.00  0.65  0.73  0.00  0.00  0.00   2.0  0.00  0.00  0.00  0.00
 2023  50   171    78  18.8  -6.0 43.16  8.67  0.60  2.64  85.1  1.19 0.199  1.39  1263    15   227  1021   444   548     0  0.00     0     0   151    29 178.3 4.669  15.3     0     0   408   268  1.01  0.86  44.2  36.0  1.02  0.00  0.00  0.22  0.00  0.00  0.00   2.0  0.00  0.00  0.00  0.00
 2023  51   172    79  18.3  -6.0 44.07  8.67  0.58  1.21  47.7  1.15 0.202  1.35  1307    15   233  1059   432   590     0  0.00     0     0   172    38 178.3 4.877  16.8     0     0   404   267  1.02  0.81  43.2  29.0  0.46  1.00  0.54  0.65  0.00  0.00  0.00   2.0  0.00  0.00  0.00  0.00
 2023  52   173    80  16.3  -6.0 44.89  8.67  0.57  1.26  45.1  1.12 0.204  1.32  1349    15   237  1096   420   630     0  0.00     0     0   191    46 178.3 5.066  18.2     0     0   400   265  1.03  0.82  43.1  33.9  0.48  1.00  0.52  0.63  0.00  0.00  0.00   2.0  0.00  0.00  0.00  0.00
 2023  53   174    81  15.3  -6.0 45.66  8.67  0.56  0.76  43.7  1.08 0.207  1.29  1389    15   242  1131   409   668     0  0.00     0     0   210    54 178.3 5.248  19.5     0     0   396   264  1.04  0.80  43.3  21.6  0.29  1.00  0.71  0.78  0.00  0.00  0.00   2.0  0.00  0.00  0.00  0.00
 2023  54   175    82  16.1  -6.0 46.46  8.67  0.55  0.73  41.2  1.05 0.209  1.26  1427    15   247  1164   398   704     0  0.00     0     0   228    62 178.3 5.444  20.7     0     0   392   263  1.06  0.81  43.5  21.4  0.27  1.00  0.73  0.79  0.00  0.00  0.00   2.0  0.00  0.00  0.00  0.00
 2023  55   176    83  13.1  -6.0 47.12  8.67  0.54  1.19  42.7  1.02 0.211  1.23  1466    15   251  1200   387   743     0  0.00     0     0   246    70 178.3 5.606  21.7     0     0   389   262  1.06  0.83  43.6  36.3  0.45  1.00  0.55  0.65  0.00  0.00  0.00   2.0  0.00  0.00  0.00  0.00
 2023  56   177    84  15.6  -6.0 47.90  8.67  0.53  1.14  39.5  0.98 0.214  1.20  1503    15   255  1233   376   779     0  0.00     0     0   263    77 178.3 5.803  22.8     0     0   386   261  1.07  0.83  43.8  35.8  0.43  1.00  0.57  0.67  0.00  0.00  0.00   2.0  0.00  0.00  0.00  0.00
 2023  57   178    85  17.0  -6.0 48.75  8.67  0.52  0.69  37.7  0.95 0.215  1.17  1538    15   259  1263   366   813     0  0.00     0     0   280    85 178.3 6.019  23.8     0     0   382   260  1.09  0.82  44.1  22.2  0.26  1.00  0.74  0.80  0.00  0.00  0.00   2.0  0.00  0.00  0.00  0.00
 2023  58   179    86  16.0  -6.0 49.55  8.67  0.50  0.70  37.3  0.92 0.217  1.14  1572    15   263  1294   355   832     0  0.00    14    14   297    92 178.3 6.226  24.7     0     0   379   259  1.10  0.82  44.4  23.1  0.26  1.00  0.74  0.80  0.00  0.00  0.00   2.0  0.00  0.00  0.00  0.00
 2023  59   180    87  16.1  -6.0 51.64  8.67  0.49  0.78  36.4  0.89 0.219  1.11  1606    15   266  1324   345   845     0  0.00    35    28   313   100 178.3 6.438  25.6     0     0   375   258  1.11  0.83  44.6  26.7  0.30  1.00  0.70  0.77  0.00  0.00  0.00   2.0  0.00  0.00  0.00  0.00
 2023  60   181    88  12.6  -6.0 54.57  8.67  0.49  2.53  39.3  0.88 0.224  1.11  1643    15   269  1359   344   857     0  0.00    58    44   325   101 178.3 6.607  25.8     0     0   373   257  1.11  0.90  44.7  88.3  0.96  0.08  0.04  0.26  0.00  0.00  0.00   2.0  0.00  0.00  0.00  0.00
 2023  61   182    89  14.6  -6.0 57.95  8.67  0.48  0.69  36.7  0.86 0.228  1.09  1677    15   272  1390   336   867     0  0.00    81    58   340   107 178.3 6.803  26.5     0     0   370   256  1.12  0.84  45.0  24.9  0.26  1.00  0.74  0.80  0.00  0.00  0.00   2.0  0.00  0.00  0.00  0.00
 2023  62   183    90  14.9  -6.0 64.64  8.67  0.47  0.67  35.4  0.84 0.232  1.07  1710    15   275  1420   328   878     0  0.00   102    71   354   112 178.3 7.006  27.1     0     0   368   255  1.13  0.85  45.2  24.5  0.25  1.00  0.75  0.81  0.00  0.00  0.00   2.0  0.00  0.00  0.00  0.00
 2023  63   184    91  14.5  -6.0 70.37  8.67  0.46  0.66  34.6  0.81 0.236  1.05  1743    15   278  1450   320   888     0  0.00   124    85   369   118 178.3 7.204  27.7     0     0   365   254  1.14  0.86  45.4  24.8  0.25  1.00  0.75  0.81  0.00  0.00  0.00   2.0  0.00  0.00  0.00  0.00
 2023  64   185    92  15.5  -6.0 71.13  8.67  0.45  0.64  33.1  0.79 0.239  1.03  1774    15   280  1479   312   897     1  0.00   145    99   381   123 178.3 7.420  28.2  3464 .0000   362   253  1.15  0.87  45.7  24.5  0.24  1.00  0.76  0.81  0.00  0.00  0.00   2.0  0.00  0.00  0.00  0.00
 2023  65   186    93  16.9  -6.0 71.96  8.67  0.44  0.65  31.8  0.77 0.242  1.01  1804    15   282  1507   304   904     6  0.00   165   116   391   128 178.3 7.656  28.5  3464 .0002   359   252  1.16  0.88  46.1  25.5  0.24  1.00  0.76  0.81  0.00  0.00  0.00   2.0  0.00  0.00  0.00  0.00
 2023  66   187    94  16.9  -6.0 72.78  8.67  0.43  0.83  31.2  0.74 0.246  0.99  1834    15   284  1535   297   907    13  0.01   184   137   397   134 178.3 7.894  28.6  3464 .0004   357   251  1.18  0.90  46.4  33.8  0.32  1.00  0.68  0.76  0.00  0.00  0.00   2.0  0.00  0.00  0.00  0.00
 2023  67   188    95  18.4  -6.0 73.69  8.67  0.42  0.69  29.7  0.72 0.249  0.97  1862    15   285  1562   289   907    25  0.02   201   161   398   139 178.3 8.155  28.5  3464 .0007   354   250  1.19  0.90  46.9  29.0  0.26  1.00  0.74  0.80  0.00  0.00  0.00   2.0  0.00  0.00  0.00  0.00
 2023  68   189    96  19.7  -6.0 74.66  8.67  0.41  0.62  28.3  0.70 0.247  0.95  1889    15   286  1587   281   908    42  0.03   211   178   413   145 178.3 8.436  29.5  3464 .0012   351   249  1.20  0.91  47.4  26.7  0.23  1.00  0.77  0.82  0.00  0.00  0.00   2.0  0.00  0.00  0.00  0.00
 2023  69   190    97  19.4  -6.0 75.61  8.67  0.40  0.60  27.9  0.68 0.245  0.92  1916    15   287  1613   274   913    63  0.04   213   199   423   150 178.3 8.714  30.2  3464 .0018   348   248  1.20  0.93  47.0  26.3  0.23  1.00  0.77  0.83  0.00  0.00  0.00   2.0  0.00  0.00  0.00  0.00
 2023  70   191    98  19.6  -6.0 76.57  8.67  0.39  0.60  27.1  0.66 0.244  0.90  1942    15   288  1639   266   914    89  0.05   214   225   428   155 178.3 8.996  30.7  3464 .0026   345   247  1.20  0.94  46.6  26.9  0.23  1.00  0.77  0.82  0.00  0.00  0.00   2.0  0.00  0.00  0.00  0.00
 2023  71   192    99  22.8  -6.0 77.69  8.67  0.38  0.57  25.0  0.63 0.242  0.88  1966    15   288  1663   259   906   124  0.07   213   260   422   160 178.3 9.324  30.6  3464 .0036   342   245  1.20  0.95  46.2  25.9  0.22  1.00  0.78  0.83  0.00  0.00  0.00   2.0  0.00  0.18  0.00  0.00
 2023  72   193   100  22.0  -6.0 78.77  8.67  0.37  0.57  24.9  0.61 0.240  0.85  1991    15   289  1687   251   895   164  0.10   211   299   412   166 178.3 9.641  30.3  3464 .0047   339   244  1.20  0.97  45.8  26.3  0.22  1.00  0.78  0.83  0.00  0.00  0.00   2.0  0.00  0.13  0.00  0.00
 2023  73   194   101  19.8  -6.0 79.74  8.67  0.36  0.58  25.1  0.59 0.238  0.83  2015    15   289  1711   244   884   204  0.12   209   340   401   170 178.3 9.926  30.0  3464 .0059   337   243  1.20  0.98  45.4  27.1  0.22  1.00  0.78  0.83  0.00  0.00  0.00   2.0  0.00  0.00  0.00  0.00
 2023  74   195   102  19.5  -6.0 80.26  8.67  0.35  0.66  24.7  0.57 0.237  0.81  2039    15   289  1736   237   869   248  0.14   206   384   385   175 178.3 10.21  29.4  3464 .0072   334   242  1.20  0.98  45.0  31.5  0.25  1.00  0.75  0.81  0.00  0.00  0.00   2.0  0.00  0.00  0.00  0.00
 2023  75   196   103  20.5  -6.0 80.63  8.67  0.35  0.72  23.8  0.56 0.235  0.79  2063    15   289  1759   232   849   297  0.17   201   433   363   179 178.3 10.50  28.3  3464 .0086   332   241  1.20  0.98  44.7  34.7  0.27  1.00  0.73  0.79  0.00  0.00  0.00   2.0  0.00  0.03  0.00  0.00
 2023  76   197   104  20.0  -6.0 80.99  8.67  0.35  1.71  23.8  0.56 0.233  0.79  2086    15   289  1782   232   830   345  0.19   196   480   340   179 178.3 10.79  27.0  3464 .0100   329   240  1.20  0.98  55.5  99.9  0.65  0.71  0.35  0.50  0.00  0.00  0.00   2.0  0.00  0.00  0.00  0.00
 2023  77   198   105  19.0  -6.0 81.34  8.67  0.35  2.65  99.9  0.55 0.232  0.79  2185    15   289  1880   232   871   390  0.21   207   526   393   180 178.3 11.07  30.0  3464 .0113   327   239  1.20  0.98  81.2  55.8  1.99  0.00  0.00  0.00  0.00  0.00  0.00   2.0  0.00  0.00  0.00  0.00
 2023  78   199   106  19.0  -6.0 81.68  8.67  0.34  2.65 104.5  0.55 0.231  0.78  2288    15   290  1982   232   916   435  0.22   219   571   450   180 178.3 11.34  33.0  3464 .0126   325   238  1.20  0.98  77.3  50.9  4.76  0.00  0.00  0.00  0.00  0.00  0.00   2.0  0.00  0.00  0.00  0.00
 2023  79   200   107  19.0  -6.0 82.03  8.67  0.34  2.65 103.2  0.55 0.229  0.78  2390    15   291  2084   232   959   481  0.23   231   616   507   181 178.3 11.62  35.6  3464 .0139   324   237  1.20  0.98  75.7  51.3  4.95  0.00  0.00  0.00  0.00  0.00  0.00   2.0  0.00  0.00  0.00  0.00
 2023  80   201   108  20.1  -6.0 82.40  8.67  0.34  2.65 101.9  0.55 0.228  0.77  2491    15   292  2183   231  1000   528  0.24   243   664   559   181 178.3 11.91  38.0  3464 .0153   322   236  1.20  0.98  74.1  50.7  4.84  0.00  0.00  0.00  0.00  0.00  0.00   2.0  0.00  0.01  0.00  0.00
 2023  81   202   109  20.2  -6.0 82.76  8.67  0.34  2.65 101.5  0.54 0.226  0.77  2591    15   293  2283   231  1040   577  0.25   254   712   611   182 178.3 12.21  40.1  3464 .0166   320   235  1.20  0.98  72.5  48.6  3.86  0.00  0.00  0.00  0.00  0.00  0.00   2.0  0.00  0.02  0.00  0.00
 2023  82   203   110  19.6  -6.0 83.12  8.67  0.34  2.65 105.1  0.54 0.225  0.77  2695    15   294  2386   231  1084   623  0.26   266   759   668   182 178.3 12.50  42.3  3464 .0180   318   234  1.20  0.98  70.9  46.8  3.18  0.00  0.00  0.00  0.00  0.00  0.00   2.0  0.00  0.00  0.00  0.00
 2023  83   204   111  17.6  -6.0 83.44  8.67  0.34  2.65 111.9  0.54 0.224  0.76  2806    15   295  2496   231  1137   665  0.27   280   801   736   183 178.3 12.75  44.7  3464 .0192   316   233  1.20  0.98  69.2  44.7  2.68  0.00  0.00  0.00  0.00  0.00  0.00   2.0  0.00  0.00  0.00  0.00
 2023  84   205   112  17.1  -6.0 83.75  8.67  0.34  2.65 107.0  0.54 0.223  0.76  2912    15   296  2600   231  1187   706  0.27   294   841   801   183 178.3 13.01  46.8  3464 .0204   315   232  1.20  0.98  67.7  46.1  2.50  0.00  0.00  0.00  0.00  0.00  0.00   2.0  0.00  0.00  0.00  0.00
 2023  85   206   113  17.5  -6.0 84.07  8.67  0.33  2.65 107.5  0.53 0.222  0.76  3019    15   297  2706   230  1237   747  0.28   308   883   865   184 178.3 13.27  48.8  3464 .0216   314   232  1.20  0.98  66.1  44.0  2.11  0.00  0.00  0.00  0.00  0.00  0.00   2.0  0.00  0.00  0.00  0.00
 2023  86   207   114  17.5  -6.0 84.39  8.67  0.33  2.65  83.2  0.53 0.220  0.75  3101    15   298  2787   230  1268   789  0.28   316   925   906   184 178.3 13.53  49.9  3464 .0228   312   231  1.20  0.98  64.9  55.8  2.29  0.00  0.00  0.00  0.00  0.00  0.00   2.0  0.00  0.00  0.00  0.00
 2023  87   208   115  18.8  -6.0 84.73  8.67  0.33  2.65  99.7  0.53 0.219  0.75  3199    15   299  2885   230  1309   833  0.29   328   969   959   185 178.3 13.81  51.4  3464 .0241   311   230  1.20  0.98  63.4  44.3  1.64  0.00  0.00  0.00  0.00  0.00  0.00   2.0  0.00  0.00  0.00  0.00
 2023  88   209   116  18.0  -6.0 85.05  8.67  0.33  2.65 102.9  0.53 0.218  0.74  3301    15   300  2986   230  1355   876  0.29   340  1012  1018   185 178.3 14.08  52.9  3464 .0253   310   229  1.20  0.98  61.8  42.4  1.39  0.00  0.00  0.00  0.00  0.00  0.00   2.0  0.00  0.00  0.00  0.00
 2023  89   210   117  19.3  -6.0 85.40  8.67  0.33  2.65 101.2  0.52 0.217  0.74  3401    15   301  3085   229  1396   922  0.30   351  1058  1072   186 178.3 14.37  54.2  3464 .0266   308   229  1.20  0.98  60.3  41.2  1.19  0.00  0.00  0.08  0.00  0.00  0.00   2.0  0.00  0.00  0.00  0.00
 2023  90   211   118  18.7  -6.0 85.74  8.67  0.33  2.54 106.9  0.52 0.216  0.74  3507    15   302  3190   229  1443   967  0.30   364  1102  1133   186 178.3 14.65  55.6  3464 .0279   307   228  1.20  0.98  58.7  37.1  0.96  0.08  0.04  0.26  0.00  0.00  0.00   2.0  0.00  0.00  0.00  0.00
 2023  91   212   119  19.4  -6.0 86.09  8.67  0.31  2.23  91.0  0.49 0.215  0.71  3597    15   303  3279   218  1479  1013  0.31   376  1148  1183   193 178.3 14.94  57.1  3464 .0292   306   227  1.20  0.98  57.4  36.6  0.84  0.31  0.16  0.35  0.00  0.00  0.00   2.0  0.00  0.00  0.00  0.00
 2023  92   213   120  20.8  -6.0 86.47  8.67  0.30  2.07  78.9  0.47 0.214  0.68  3675    15   303  3356   206  1503  1062  0.32   384  1198  1218   201 178.3 15.25  58.2  3464 .0307   305   226  1.20  0.98  56.1  37.4  0.78  0.43  0.22  0.40  0.00  0.00  0.00   2.0  0.00  0.06  0.00  0.00
 2023  93   214   121  18.6  -6.0 86.81  8.67  0.28  2.14  74.0  0.44 0.212  0.65  3748    15   304  3429   194  1528  1106  0.32   392  1242  1254   208 178.3 15.54  59.3  3464 .0319   304   225  1.20  0.98  55.0  41.9  0.81  0.38  0.19  0.38  0.00  0.00  0.00   2.0  0.00  0.00  0.00  0.00
 2023  94   215   122  17.1  -6.0 87.12  8.67  0.27  1.97  70.9  0.41 0.212  0.62  3818    15   305  3498   182  1553  1147  0.33   401  1283  1290   215 178.3 15.80  60.4  3464 .0331   303   225  1.20  0.98  54.0  41.5  0.74  0.51  0.26  0.43  0.00  0.00  0.00   2.0  0.00  0.00  0.00  0.00
 2023  95   216   123  15.9  -6.0 87.41  8.67  0.25  2.00  67.0  0.38 0.211  0.60  3885    15   305  3564   172  1577  1184  0.33   409  1320  1325   222 178.3 16.04  61.4  3464 .0342   302   224  1.20  0.98  53.1  44.9  0.76  0.49  0.24  0.42  0.00  0.00  0.00   2.0  0.00  0.00  0.00  0.00
 2023  96   217   124  15.9  -6.0 87.70  8.67  0.24  1.84  61.4  0.36 0.210  0.57  3945    15   306  3624   162  1597  1222  0.34   416  1358  1353   228 178.3 16.28  62.2  3464 .0353   301   223  1.20  0.98  52.2  43.8  0.70  0.61  0.30  0.46  0.00  0.00  0.00   2.0  0.00  0.00  0.00  0.00
 2023  97   218   125  17.3  -6.0 88.01  8.67  0.23  1.77  55.8  0.34 0.209  0.55  4000    15   306  3679   152  1610  1263  0.34   420  1399  1373   234 178.3 16.55  62.9  3464 .0365   300   223  1.20  0.98  51.4  44.2  0.67  0.67  0.33  0.49  0.00  0.00  0.00   2.0  0.00  0.00  0.00  0.00
 2023  98   219   126  19.2  -6.0 88.36  8.67  0.21  1.67  50.3  0.31 0.207  0.52  4050    15   306  3728   141  1610  1309  0.35   425  1444  1383   244 178.3 16.84  63.6  3464 .0378   299   222  1.20  0.98  50.7  43.8  0.63  0.74  0.37  0.52  0.00  0.00  0.00   2.0  0.00  0.00  0.00  0.00
 2023  99   220   127  20.0  -6.0 88.72  8.67  0.20  1.64  46.7  0.29 0.205  0.49  4096    15   307  3774   129  1606  1356  0.36   428  1492  1388   254 178.3 17.15  64.2  3464 .0392   298   221  1.20  0.98  50.0  45.1  0.62  0.76  0.38  0.52  0.00  0.00  0.00   2.0  0.00  0.00  0.00  0.00
 2023 100   221   128  19.5  -6.0 89.08  8.67  0.18  1.83  44.6  0.26 0.204  0.46  4140    15   307  3818   117  1602  1403  0.37   432  1538  1393   265 178.3 17.44  64.8  3464 .0405   297   220  1.20  0.98  49.3  52.4  0.69  0.61  0.31  0.47  0.00  0.00  0.00   2.0  0.00  0.00  0.00  0.00
 2023 101   222   129  21.5  -6.0 89.47  8.67  0.16  1.79  40.9  0.23 0.202  0.43  4180    15   307  3858   104  1591  1454  0.38   433  1590  1390   276 178.3 17.77  65.3  3464 .0420   296   220  1.20  0.98  48.6  53.0  0.68  0.65  0.32  0.48  0.00  0.00  0.00   2.0  0.00  0.10  0.00  0.00
 2023 102   223   130  20.7  -6.0 89.84  8.67  0.14  1.95  39.9  0.20 0.200  0.40  4220    15   307  3897    90  1581  1503  0.39   435  1639  1388   287 178.3 18.09  65.9  3464 .0434   295   219  1.20  0.98  48.0  60.1  0.74  0.52  0.26  0.43  0.00  0.00  0.00   2.0  0.00  0.04  0.00  0.00
 2023 103   224   131  20.1  -6.0 90.57  8.67  0.12  2.60  39.2  0.17 0.198  0.37  4258    15   307  3936    77  1592  1524  0.39   444  1660  1413   298 178.3 18.40  66.9  3464 .0440   294   218  1.20  0.98  47.4  82.8  0.98  0.03  0.02  0.24  0.00  0.00  0.00   2.0  0.00  0.01  0.00  0.00
