$GROWTH ASPECTS OUTPUT FILE

*DSSAT Cropping System Model Ver. 4.8.2.000 -release  JUL 07, 2025 11:09:34

*RUN   1        : WW23_G-1                  CSCER048 CIOB2301    1
 MODEL          : CSCER048 - Wheat
 EXPERIMENT     : CIOB2301 WH ROOTS ANATOMY
 DATA PATH      : C:\DSSAT48\Wheat\
 TREATMENT  1   : WW23_G-1                  CSCER048
  
@YEAR DOY   DAS   DAP TMEAN TKILL  GSTD  L#SD PARID PARUD  AWAD  LAID  SAID  CAID  TWAD SDWAD  RWAD  CWAD  LWAD  SWAD  HWAD  HIAD CHWAD  EWAD RSWAD SNWPD SNWLD SNWSD  RS%D  H#AD  HWUD  T#AD  SLAD  RDPD  PTFD  SWXD WAVRD WUPRD  WFTD  WFPD  WFGD  NFTD  NFPD  NFGD NUPRD  TFPD  TFGD VRNFD DYLFD
 2022 327    83     0  17.6  -6.0  0.00  0.00  0.00  0.00   0.0  0.00 0.000  0.00    43    43     0     0     0     0     0  0.00     0     0     0     0     0     0   0.0     0     0   150   -99  0.04  0.00  19.7  99.9  1.00  0.00  0.00  0.00  0.00  0.00  0.00   0.0  0.00  0.00  0.60  0.00
 2022 328    84     1  16.4  -6.0  5.84  0.00  0.00  0.00   0.0  0.00 0.000  0.00    43    43     0     0     0     0     0  0.00     0     0     0     0     0     0   0.0     0     0   150   -99  0.04  0.00   7.2  99.9  1.00  0.00  0.00  0.00  0.00  0.00  0.00   0.0  0.00  0.00  0.60  0.00
 2022 329    85     2  17.4  -6.0  8.40  0.00  0.00  0.00   0.0  0.00 0.000  0.00    43    41     1     0     0     0     0  0.00     0     0     0     0     0     0   0.0     0     0   150   -99  0.07  0.00   4.4  99.9  1.00  0.00  0.00  0.00  0.00  0.00  0.00   0.0  0.00  0.00  0.60  0.00
 2022 330    86     3  18.0  -6.0 10.00  0.00  0.00  0.00   0.0  0.00 0.000  0.00    43    40     3     0     0     0     0  0.00     0     0     0     0     0 .0012   0.0     0     0   150   -99  0.09  0.00   3.8  99.9  1.00  0.00  0.00  0.00  0.00  0.00  0.00   2.0  0.00  0.00  0.60  0.00
 2022 331    87     4  16.3  -6.0 10.22  0.22  0.01  0.00   0.0  0.01 0.001  0.01    43    36     4     2     2     1     0  0.00     0     0     0     0     0 .0034   0.0     0     0   150   400  0.12  0.75   3.9  99.9  1.00  0.00  0.00  0.00  0.00  0.00  0.00   0.4  0.00  0.00  0.60  0.01
 2022 332    88     5  16.1  -6.0 10.43  0.43  0.01  2.87   1.3  0.01 0.001  0.01    44    33     5     6     3     3     0  0.00     0     0     1     0     0 .0066  16.7     0     0   150   397  0.14  0.75   4.2  99.9  1.25  0.00  0.00  0.04  0.00  0.00  0.00   0.3  0.00  0.00  0.60  0.01
 2022 333    89     6  18.1  -6.0 10.67  0.67  0.01  2.38   2.0  0.02 0.002  0.02    46    30     7     9     4     5     0  0.00     0     0     2     0     0 .0113  27.2     0     0   150   397  0.17  0.74   5.7  99.9  0.83  0.34  0.17  0.36  0.00  0.00  0.00   0.5  0.00  0.00  0.60  0.01
 2022 334    90     7  18.5  -6.0 10.92  0.92  0.02  2.62   3.0  0.02 0.002  0.02    48    27     8    13     6     7     0  0.00     0     0     5     0     0 .0173  35.4     0     0   150   396  0.20  0.75   7.2  99.9  0.91  0.18  0.09  0.30  0.00  0.00  0.00   0.8  0.00  0.00  0.60  0.01
 2022 335    91     8  19.2  -6.0 11.18  1.18  0.02  2.57   3.8  0.03 0.002  0.03    52    24     9    18     7    11     0  0.00     0     0     8     0     0 .0250  41.2     0     0   150   396  0.23  0.75   8.9  99.9  0.89  0.21  0.11  0.31  0.00  0.00  0.00   1.0  0.00  0.00  0.60  0.01
 2022 336    92     9  23.0  -6.0 11.48  1.48  0.03  2.50   4.5  0.03 0.003  0.04    56    21    11    24     9    15     0  0.00     0     0    11     0     0 .0359  45.7     0     0   150   394  0.26  0.74  10.9  99.9  0.87  0.26  0.13  0.33  0.00  0.00  0.00   1.3  0.00  0.20  0.60  0.01
 2022 337    93    10  23.0  -6.0 11.79  1.79  0.03  2.87   5.7  0.04 0.004  0.04    61    17    13    31    10    20     0  0.00     0     0    15     0     0 .0487  49.4     0     0   150   392  0.29  0.76  12.8  99.9  1.02  0.00  0.00  0.21  0.00  0.00  0.00   1.5  0.00  0.20  0.60  0.01
 2022 338    94    11  22.0  -6.0 12.04  2.04  0.04  2.87   6.5  0.05 0.004  0.05    67    14    15    38    12    26     0  0.00     0     0    20     0     0 .0629  52.5     0     0   150   391  0.33  0.76  14.7  99.9  1.12  0.00  0.00  0.14  0.00  0.00  0.00   1.9  0.00  0.13  0.60  0.01
 2022 339    95    12  22.2  -6.0 12.19  2.19  0.04  2.87   3.1  0.05 0.005  0.06    69    11    16    43    13    29     0  0.00     0     0    22     0     0 .0792  52.6     0     0   150   389  0.36  0.76  17.0  99.9  2.86  0.00  0.00  0.00  0.00  0.00  0.00   2.0  0.00  0.15  0.60  0.01
 2022 340    96    13  19.7  -6.0 12.32  2.32  0.05  2.87   2.4  0.06 0.005  0.06    72     9    17    45    15    31     0  0.00     0     0    23     0     0 .0951  51.0     0     0   150   387  0.38  0.76  20.2  99.9  4.41  0.00  0.00  0.00  0.00  0.00  0.00   2.0  0.00  0.00  0.60  0.01
 2022 341    97    14  20.0  -6.0 12.45  2.45  0.05  2.87   4.5  0.06 0.006  0.07    76     9    18    49    16    33     0  0.00     0     0    25     0     0 0.112  50.3     0     0   150   386  0.40  0.76  20.7  99.9  2.63  0.00  0.00  0.00  0.00  0.00  0.00   2.0  0.00  0.00  0.60  0.01
 2022 342    98    15  20.8  -6.0 12.59  2.59  0.06  2.87  10.2  0.07 0.006  0.07    85     9    19    57    18    40     0  0.00     0     0    31     0     0 0.131  53.9     0     0   150   385  0.42  0.76  21.3  99.9  1.16  0.00  0.00  0.11  0.00  0.00  0.00   2.0  0.00  0.05  0.60  0.01
 2022 343    99    16  18.0  -6.0 12.71  2.71  0.06  2.87  12.2  0.07 0.006  0.08    96     9    21    66    19    48     0  0.00     0     0    38     0     0 0.148  57.9     0     0   150   384  0.44  0.76  22.3  99.9  1.10  0.00  0.00  0.15  0.00  0.00  0.00   2.0  0.00  0.00  0.60  0.01
 2022 344   100    17  17.0  -6.0 12.83  2.83  0.06  2.87  13.6  0.08 0.007  0.08   108     9    23    77    20    57     0  0.00     0     0    47     0     0 0.166  61.6     0     0   150   383  0.45  0.77  23.2  99.9  1.09  0.00  0.00  0.16  0.00  0.00  0.00   2.0  0.00  0.00  0.60  0.01
 2022 345   101    18  16.2  -6.0 12.93  2.93  0.07  2.87  13.7  0.08 0.007  0.09   121     9    25    87    21    67     0  0.00     0     0    56     0     0 0.184  64.4     0     0   150   382  0.47  0.77  24.1  99.9  1.19  0.00  0.00  0.09  0.00  0.00  0.00   2.0  0.00  0.00  0.60  0.01
 2022 346   102    19  16.1  -6.0 13.04  3.04  0.07  2.87  14.6  0.08 0.008  0.09   134     9    27    99    22    77     0  0.00     0     0    66     0     0 0.204  66.7     0     0   150   381  0.48  0.77  24.9  99.9  1.22  0.00  0.00  0.06  0.00  0.00  0.00   2.0  0.00  0.00  0.60  0.01
 2022 347   103    20  15.1  -6.0 13.14  3.14  0.07  2.87  14.6  0.09 0.008  0.10   147     9    29   110    23    87     0  0.00     0     0    75     0     0 0.224  68.3     0     0   150   380  0.50  0.77  72.5  99.9  1.36  0.00  0.00  0.00  0.00  0.00  0.00   2.0  0.00  0.00  0.60  0.01
 2022 348   104    21  15.2  -6.0 13.24  3.24  0.08  2.87  16.5  0.09 0.008  0.10   162     9    31   122    24    98     0  0.00     0     0    86     0     0 0.246  70.0     0     0   150   379  0.51  0.77  55.5  99.9  3.87  0.00  0.00  0.00  0.00  0.00  0.00   2.0  0.00  0.00  0.60  0.01
 2022 349   105    22  14.6  -6.0 13.34  3.34  0.08  2.88  16.9  0.10 0.009  0.11   177     9    33   135    26   110     0  0.00     0     0    97     0     0 0.269  71.5     0     0   150   378  0.53  0.77  40.4  99.9  4.27  0.00  0.00  0.00  0.00  0.00  0.00   2.0  0.00  0.00  0.59  0.01
 2022 350   106    23  12.5  -6.0 13.43  3.43  0.08  2.88   9.8  0.10 0.009  0.11   186     9    35   143    27   116     0  0.00     0     0   103     0     0 0.290  71.9     0     0   150   377  0.54  0.77  34.3  99.9  6.03  0.00  0.00  0.00  0.00  0.00  0.00   2.0  0.00  0.00  0.56  0.01
 2022 351   107    24  14.9  -6.0 13.53  3.53  0.09  2.88  17.4  0.11 0.010  0.12   202     9    37   156    28   128     0  0.00     0     0   114     0     0 0.316  73.1     0     0   150   376  0.55  0.77  32.7  99.9  3.28  0.00  0.00  0.00  0.00  0.00  0.00   2.0  0.00  0.00  0.56  0.01
 2022 352   108    25  15.5  -6.0 13.63  3.63  0.09  2.88  18.2  0.11 0.010  0.12   218     9    40   170    29   141     0  0.00     0     0   126     0     0 0.345  74.1     0     0   150   376  0.57  0.77  33.1  99.9  3.23  0.00  0.00  0.00  0.00  0.00  0.00   2.0  0.00  0.00  0.56  0.01
 2022 353   109    26  14.8  -6.0 13.73  3.73  0.09  2.88  19.3  0.11 0.011  0.13   236     9    42   185    31   155     0  0.00     0     0   139     0     0 0.374  75.2     0     0   150   375  0.58  0.77  33.8  99.9  2.92  0.00  0.00  0.00  0.00  0.00  0.00   2.0  0.00  0.00  0.55  0.01
 2022 354   110    27  16.6  -6.0 13.84  3.84  0.10  2.88  18.3  0.12 0.011  0.13   252     9    45   199    32   167     0  0.00     0     0   151     0     0 0.409  75.9     0     0   150   374  0.60  0.77  34.5  99.9  3.02  0.00  0.00  0.00  0.00  0.00  0.00   2.0  0.00  0.00  0.55  0.01
 2022 355   111    28  15.2  -6.0 13.94  3.94  0.10  2.88  21.3  0.12 0.012  0.14   272     9    48   216    33   182     0  0.00     0     0   166     0     0 0.443  76.8     0     0   150   373  0.61  0.77  35.2  99.9  2.69  0.00  0.00  0.00  0.00  0.00  0.00   2.0  0.00  0.00  0.55  0.01
 2022 356   112    29  15.3  -6.0 14.04  4.04  0.10  2.88  22.4  0.13 0.012  0.14   292     9    51   233    35   198     0  0.00     0     0   181     0     0 0.479  77.6     0     0   150   372  0.63  0.77  35.9  99.9  2.62  0.00  0.00  0.00  0.00  0.00  0.00   2.0  0.00  0.00  0.55  0.01
 2022 357   113    30  15.9  -6.0 14.15  4.15  0.11  2.88  22.9  0.13 0.012  0.14   312     9    54   250    36   215     0  0.00     0     0   197     0 0.498 0.519  78.6     0     0   150   371  0.64  0.77  36.5  99.9  2.59  0.00  0.00  0.00  0.00  0.00  0.00   2.0  0.00  0.00  0.55  0.01
 2022 358   114    31  16.2  -6.0 14.26  4.26  0.11  2.88  23.6  0.14 0.013  0.15   333     9    57   268    37   231     0  0.00     0     0   213     0 1.006 0.563  79.4     0     0   150   370  0.65  0.78  37.1  99.9  2.59  0.00  0.00  0.00  0.00  0.00  0.00   2.0  0.00  0.00  0.55  0.01
 2022 359   115    32  17.8  -6.0 14.37  4.37  0.11  2.88  24.2  0.14 0.013  0.15   354     9    61   285    38   247     0  0.00     0     0   228     0 1.562 0.613  80.1     0     0   150   369  0.67  0.78  37.7  99.9  2.51  0.00  0.00  0.00  0.00  0.00  0.00   2.0  0.00  0.00  0.58  0.01
 2022 360   116    33  17.0  -6.0 14.49  4.49  0.11  2.88  25.1  0.14 0.014  0.16   372     9    71   292    39   253     0  0.00     0     0   234     0 2.095 0.665  80.0     0     0   150   368  0.68  0.78  38.4  99.9  2.60  0.00  0.00  0.00  0.00  0.00  0.00   2.0  0.00  0.00  0.58  0.01
 2022 361   117    34  17.5  -6.0 14.60  4.60  0.12  2.88  25.3  0.15 0.014  0.16   390     9    81   300    40   261     0  0.00     0     0   240     0 2.645 0.727  80.0     0     0   150   367  0.70  0.78  39.0  99.9  3.03  0.00  0.00  0.00  0.00  0.00  0.00   2.0  0.00  0.00  0.60  0.01
 2022 362   118    35  16.6  -6.0 14.72  4.72  0.12  2.88  16.2  0.15 0.014  0.16   402     9    86   307    41   267     0  0.00     0     0   246     0 3.169 0.795  80.0     0     0   163   366  0.71  0.78  39.8  99.9  5.63  0.00  0.00  0.00  0.00  0.00  0.00   2.0  0.00  0.00  0.60  0.01
 2022 363   119    36  17.2  -6.0 14.83  4.83  0.12  2.88   7.2  0.15 0.015  0.17   408     9    87   313    42   271     0  0.00     0     0   249     0 3.712 0.869  79.8     0     0   177   365  0.72  0.78  40.9  99.9 13.49  0.00  0.00  0.00  0.00  0.00  0.00   2.0  0.00  0.00  0.60  0.01
 2022 364   120    37  18.6  -6.0 14.95  4.95  0.12  2.88  25.5  0.16 0.015  0.17   429     9    93   328    43   285     0  0.00     0     0   262     0 4.299 0.950  80.1     0     0   192   364  0.74  0.78  41.6  99.9  3.55  0.00  0.00  0.00  0.00  0.00  0.00   2.0  0.00  0.00  0.60  0.01
 2022 365   121    38  17.8  -6.0 15.07  5.07  0.13  2.88  27.4  0.16 0.016  0.18   451     9    99   344    45   299     0  0.00     0     0   275     0 4.714 1.032  79.9     0     0   206   363  0.75  0.78  42.3  99.9  3.44  0.00  0.00  0.00  0.00  0.00  0.00   2.0  0.00  0.00  0.60  0.01
 2023   1   122    39  16.6  -6.0 15.18  5.18  0.14  2.88  25.1  0.17 0.017  0.19   474     9   102   363    48   315     0  0.00     0     0   290     0 5.193 1.115  79.8     0     0   220   361  0.77  0.78  42.9  99.9  4.06  0.00  0.00  0.00  0.00  0.00  0.00   2.0  0.00  0.00  0.60  0.01
 2023   2   123    40  15.1  -6.0 15.28  5.28  0.14  2.88  21.7  0.18 0.018  0.20   493     9   105   380    51   329     0  0.00     0     0   302     0 5.631 1.192  79.6     0     0   232   359  0.78  0.78  43.5  99.9  4.84  0.00  0.00  0.00  0.00  0.00  0.00   2.0  0.00  0.00  0.60  0.01
 2023   3   124    41  13.8  -6.0 15.38  5.38  0.15  2.88  31.1  0.19 0.019  0.21   521     9   109   403    53   350     0  0.00     0     0   322     0 6.030 1.264  79.9     0     0   243   358  0.79  0.78  84.0  99.9  3.42  0.00  0.00  0.00  0.00  0.00  0.00   2.0  0.00  0.00  0.58  0.01
 2023   4   125    42  16.3  -6.0 15.48  5.48  0.16  2.88  33.5  0.20 0.020  0.22   551     9   113   429    56   373     0  0.00     0     0   343     0 6.503 1.353  79.9     0     0   256   357  0.80  0.78  67.0  99.9  6.95  0.00  0.00  0.00  0.00  0.00  0.00   2.0  0.00  0.00  0.58  0.01
 2023   5   126    43  17.6  -6.0 15.60  5.60  0.17  2.88  36.3  0.21 0.021  0.23   584     9   118   457    60   397     0  0.00     0     0   365     0 7.018 1.453  79.9     0     0   270   356  0.82  0.78  56.6  99.9  6.71  0.00  0.00  0.00  0.00  0.00  0.00   2.0  0.00  0.00  0.59  0.01
 2023   6   127    44  18.3  -6.0 15.72  5.72  0.17  2.88  37.6  0.23 0.023  0.25   617     9   123   486    64   422     0  0.00     0     0   388     0 7.552 1.561  79.8     0     0   284   354  0.83  0.78  53.0  99.9  5.46  0.00  0.00  0.00  0.00  0.00  0.00   2.0  0.00  0.00  0.59  0.01
 2023   7   128    45  17.7  -6.0 15.84  5.84  0.18  2.88  38.4  0.24 0.024  0.26   652     9   127   516    68   448     0  0.00     0     0   411     0 8.071 1.670  79.7     0     0   299   353  0.85  0.79  53.5  99.9  5.43  0.00  0.00  0.00  0.00  0.00  0.00   2.0  0.00  0.00  0.59  0.01
 2023   8   129    46  17.3  -6.0 21.08  5.96  0.19  2.88  40.4  0.25 0.026  0.28   688     9   133   547    72   475     0  0.00     0     0   436     0 8.579 1.780  79.7     0     0   312   352  0.86  0.79  53.9  99.9  5.12  0.00  0.00  0.00  0.00  0.00  0.00   2.0  0.00  0.00  0.59  0.01
 2023   9   130    47  16.6  -6.0 21.17  6.07  0.21  2.88  44.5  0.28 0.029  0.31   728     9   138   582    80   502     0  0.00     0     0   458     0 9.069 1.890  78.7     0     0   326   350  0.88  0.79  54.3  94.5  4.63  0.00  0.00  0.00  0.00  0.00  0.00   2.0  0.00  0.00  0.59  0.01
 2023  10   131    48  17.2  -6.0 21.26  6.18  0.23  2.88  47.2  0.31 0.032  0.34   770     9   144   618    89   528     0  0.00     0     0   479     0 9.891 2.009  77.5     0     0   340   348  0.89  0.79  54.6  88.4  4.26  0.00  0.00  0.00  0.00  0.00  0.00   2.0  0.00  0.00  0.59  0.01
 2023  11   132    49  17.9  -6.0 21.36  6.30  0.25  2.88  54.5  0.34 0.036  0.38   819     9   151   660    99   561     0  0.00     0     0   505     0 10.75 2.138  76.5     0     0   354   346  0.91  0.79  54.9  75.9  3.59  0.00  0.00  0.00  0.00  0.00  0.00   2.0  0.00  0.00  0.60  0.01
 2023  12   133    50  18.4  -6.0 21.46  6.43  0.27  2.88  59.7  0.38 0.040  0.42   873     9   158   706   110   597     0  0.00     0     0   535     0 11.64 2.276  75.7     0     0   369   344  0.92  0.79  55.1  69.7  3.25  0.00  0.00  0.00  0.00  0.00  0.00   2.0  0.00  0.00  0.60  0.01
 2023  13   134    51  16.6  -6.0 21.55  6.54  0.29  2.88  63.8  0.41 0.043  0.45   930     9   166   756   119   637     0  0.00     0     0   570     0 12.45 2.408  75.4     0     0   382   343  0.93  0.79  55.2  66.8  3.09  0.00  0.00  0.00  0.00  0.00  0.00   2.0  0.00  0.00  0.60  0.01
 2023  14   135    52  17.6  -6.0 21.64  6.65  0.31  2.88  67.3  0.44 0.047  0.49   991     9   174   808   129   680     0  0.00     0     0   606     0 13.30 2.555  75.0     0     0   396   341  0.95  0.79  55.3  62.3  2.78  0.00  0.00  0.00  0.00  0.00  0.00   2.0  0.00  0.00  0.60  0.01
 2023  15   136    53  16.9  -6.0 21.73  6.77  0.33  2.88  49.3  0.47 0.051  0.52  1035     9   180   846   138   708     0  0.00     0     0   629     0 14.13 2.702  74.4     0     0   409   340  0.96  0.79  55.7  89.2  3.82  0.00  0.00  0.00  0.00  0.00  0.00   2.0  0.00  0.00  0.60  0.01
 2023  16   137    54  17.0  -6.0 21.82  6.88  0.35  2.88  75.7  0.50 0.054  0.55  1104     9   190   906   147   758     0  0.00     0     0   673     0 14.95 2.854  74.4     0     0   423   339  0.98  0.79  55.7  58.0  2.43  0.00  0.00  0.00  0.00  0.00  0.00   2.0  0.00  0.00  0.60  0.01
 2023  17   138    55  14.1  -6.0 21.90  6.97  0.36  2.88  23.9  0.53 0.057  0.58  1125     9   192   924   155   768     0  0.00     0     0   679     0 15.64 2.988  73.5     0     0   434   338  0.99  0.79  56.6  99.9  8.02  0.00  0.00  0.00  0.00  0.00  0.00   2.0  0.00  0.00  0.59  0.01
 2023  18   139    56  13.8  -6.0 21.97  7.07  0.38  2.88  79.8  0.56 0.061  0.62  1197     9   202   986   166   820     0  0.00     0     0   724     0 16.32 3.121  73.4     0     0   445   337  1.00  0.79  56.4  58.5  2.36  0.00  0.00  0.00  0.00  0.00  0.00   2.0  0.00  0.00  0.57  0.01
 2023  19   140    57  14.2  -6.0 22.05  7.16  0.40  2.88  83.4  0.60 0.066  0.67  1273     9   212  1052   179   873     0  0.00     0     0   770     0 17.22 3.265  73.2     0     0   457   336  1.01  0.79  56.2  55.2  2.20  0.00  0.00  0.00  0.00  0.00  0.00   2.0  0.00  0.00  0.56  0.01
 2023  20   141    58  13.8  -6.0 22.12  7.25  0.43  2.88  98.2  0.65 0.072  0.72  1362     9   224  1129   195   934     0  0.00     0     0   821     0 18.08 3.411  72.7     0     0   468   335  1.02  0.79 106.2  89.1  1.86  0.00  0.00  0.00  0.00  0.00  0.00   2.0  0.00  0.00  0.54  0.01
 2023  21   142    59  14.1  -6.0 22.19  7.35  0.45  2.88 105.1  0.70 0.078  0.78  1457     9   237  1212   211  1001     0  0.00     0     0   877     0 18.98 3.569  72.4     0     0   479   333  1.03  0.80  89.0  67.2  4.98  0.00  0.00  0.00  0.00  0.00  0.00   2.0  0.00  0.00  0.53  0.01
 2023  22   143    60  14.1  -6.0 22.27  7.44  0.47  2.88 113.9  0.76 0.084  0.84  1561     9   251  1302   228  1074     0  0.00     0     0   940     0 19.87 3.736  72.2     0     0   490   332  1.05  0.80  75.2  53.2  4.94  0.00  0.00  0.00  0.00  0.00  0.00   2.0  0.00  0.00  0.51  0.01
 2023  23   144    61  12.6  -6.0 22.34  7.52  0.49  2.88 101.5  0.80 0.090  0.89  1653     9   263  1382   242  1139     0  0.00     0     0   996     0 20.67 3.893  72.1     0     0   500   331  1.06  0.80  69.9  58.5  5.19  0.00  0.00  0.00  0.00  0.00  0.00   2.0  0.00  0.00  0.48  0.01
 2023  24   145    62  13.1  -6.0 22.44  7.61  0.51  2.88 125.8  0.85 0.096  0.95  1768     9   278  1481   258  1223     0  0.00     0     0  1071     0 21.51 4.065  72.3     0     0   516   330  1.07  0.80  68.4  45.9  4.29  0.00  0.00  0.00  0.00  0.00  0.00   2.0  0.00  0.00  0.45  0.01
 2023  25   146    63  14.5  -6.0 22.56  7.71  0.54  2.88 131.7  0.90 0.102  1.01  1888     9   294  1585   275  1310     0  0.00     0     0  1148     0 22.43 4.267  72.4     0     0   533   329  1.08  0.80  67.6  41.9  3.89  0.00  0.00  0.00  0.00  0.00  0.00   2.0  0.00  0.00  0.44  0.01
 2023  26   147    64  15.7  -6.0 22.68  7.81  0.56  2.88 126.5  0.96 0.109  1.07  2003     9   309  1686   293  1392     0  0.00     0     0  1218     0 23.44 4.497  72.2     0     0   552   328  1.09  0.80  66.9  42.5  3.81  0.00  0.00  0.00  0.00  0.00  0.00   2.0  0.00  0.00  0.44  0.01
 2023  27   148    65  12.1  -6.0 22.68  7.89  0.58  2.88 105.2  1.01 0.115  1.12  2099     9   321  1769   309  1461     0  0.00     0     0  1277     0 23.86 4.685  72.2     0     0   552   327  1.10  0.80  66.3  54.1  4.76  0.00  0.00  0.00  0.00  0.00  0.00   2.0  0.00  0.00  0.00  0.00
 2023  28   149    66  15.6  -6.0 22.68  8.00  0.60  2.88 120.9  1.07 0.122  1.19  2209     9   335  1865   327  1538     0  0.00     0     0  1343     0 24.83 4.935  72.0     0     0   552   326  1.11  0.80  65.7  43.1  3.69  0.00  0.00  0.00  0.00  0.00  0.00   2.0  0.00  0.00  0.00  0.00
 2023  29   150    67  14.4  -6.0 22.68  8.09  0.62  2.88 151.8  1.15 0.132  1.28  2348     9   353  1986   354  1633     0  0.00     0     0  1420     0 25.73 5.178  71.5     0     0   552   325  1.13  0.80  64.7  34.7  2.89  0.00  0.00  0.00  0.00  0.00  0.00   2.0  0.00  0.00  0.00  0.00
 2023  30   151    68  14.6  -6.0 22.68  8.19  0.65  2.88 141.6  1.23 0.143  1.38  2477     9   369  2100   381  1718     0  0.00     0     0  1487     0 26.64 5.434  70.8     0     0   552   323  1.14  0.81  63.8  36.5  2.98  0.00  0.00  0.00  0.00  0.00  0.00   2.0  0.00  0.00  0.00  0.00
 2023  31   152    69  14.5  -6.0 22.68  8.29  0.67  2.88 151.2  1.32 0.154  1.47  2616     9   386  2221   409  1812     0  0.00     0     0  1561     0 27.54 5.702  70.3     0     0   552   322  1.15  0.81  62.8  33.7  2.57  0.00  0.00  0.00  0.00  0.00  0.00   2.0  0.00  0.00  0.00  0.00
 2023  32   153    70  13.4  -6.0 22.68  8.38  0.69  2.88 117.1  1.39 0.165  1.55  2723     9   399  2315   435  1880     0  0.00     0     0  1611     0 28.38 5.960  69.6     0     0   543   319  1.16  0.81  62.1  44.6  3.16  0.00  0.00  0.00  0.00  0.00  0.00   2.0  0.00  0.00  0.00  0.00
 2023  33   154    71  15.9  -6.0 30.63  8.48  0.71  2.88 165.3  1.47 0.177  1.65  2875     9   418  2448   465  1983     0  0.00     0     0  1691     0 29.38 6.277  69.1     0     0   533   317  1.17  0.81  61.0  29.1  1.97  0.00  0.00  0.00  0.00  0.00  0.00   2.0  0.00  0.00  0.00  0.00
 2023  34   155    72  16.9  -6.0 31.31  8.59  0.74  2.88 169.4  1.56 0.191  1.76  3030     9   436  2585   498  2088     0  0.00     0     0  1769     0 30.45 6.629  68.4     0     0   522   314  1.19  0.81 103.4  46.4  1.68  0.00  0.00  0.00  0.00  0.00  0.00   2.0  0.00  0.00  0.00  0.00
 2023  35   156    73  16.9  -6.0 32.00  8.71  0.75  2.88 180.8  1.65 0.205  1.86  3196     9   456  2732   530  2202     0  0.00     0     0  1855     0 31.53 6.997  67.9     0     0   512   312  1.20  0.82  88.0  35.9  5.24  0.00  0.00  0.00  0.00  0.00  0.00   2.0  0.00  0.00  0.00  0.00
 2023  36   157    74  18.1  -6.0 32.74  8.83  0.77  2.88 185.6  1.75 0.221  1.97  3367     9   475  2883   566  2317     0  0.00     0     0  1940     0 32.69 7.411  67.3     0     0   501   310  1.22  0.82  83.2  32.7  5.27  0.00  0.00  0.00  0.00  0.00  0.00   2.0  0.00  0.00  0.00  0.00
 2023  37   158    75  16.7  -6.0 33.42  8.94  0.79  2.88 182.6  1.85 0.237  2.08  3536     9   494  3033   600  2433     0  0.00     0     0  2025     0 32.69 7.808  66.8     0     0   492   307  1.22  0.82  79.9  33.3  5.41  0.00  0.00  0.00  0.00  0.00  0.00   2.0  0.00  0.00  0.00  0.00
 2023  38   159    76  16.2  -6.0 34.08  9.05  0.81  2.88 202.6  1.96 0.255  2.21  3724     9   515  3200   641  2560     0  0.00     0     0  2113     0 32.69 8.208  66.0     0     0   483   306  1.22  0.83  76.2  29.1  4.68  0.00  0.00  0.00  0.00  0.00  0.00   2.0  0.00  0.00  0.00  0.00
 2023  39   160    77  18.1  -6.0 34.81  9.17  0.83  2.88 213.3  2.11 0.282  2.39  3921     9   537  3376   696  2680     0  0.00     0     0  2176     0 33.87 8.675  64.5     0     0   474   303  1.22  0.83  72.3  24.9  3.92  0.00  0.00  0.00  0.00  0.00  0.00   2.0  0.00  0.00  0.00  0.00
 2023  40   161    78  15.1  -6.0 35.43  9.27  0.85  2.88 221.7  2.23 0.305  2.54  4126     9   559  3559   742  2816     0  0.00     0     0  2263     0 34.86 9.081  63.6     0     0   466   301  1.22  0.83  69.2  24.2  3.56  0.00  0.00  0.00  0.00  0.00  0.00   2.0  0.00  0.00  0.00  0.00
 2023  41   162    79  17.1  -6.0 36.13  9.38  0.87  2.88 199.3  2.38 0.332  2.71  4311     9   578  3724   795  2929     0  0.00     0     0  2315     0 35.98 9.560  62.2     0     0   458   299  1.22  0.83  66.4  24.8  3.20  0.00  0.00  0.00  0.00  0.00  0.00   2.0  0.00  0.00  0.00  0.00
 2023  42   163    80  14.0  -6.0 36.69  9.48  0.88  2.88  73.6  2.49 0.349  2.84  4378     9   585  3784   839  2946     0  0.00     0     0  2303     0 36.90 9.965  60.8     0     0   451   297  1.22  0.84  65.4  71.7  8.02  0.00  0.00  0.00  0.00  0.00  0.00   2.0  0.00  0.00  0.00  0.00
 2023  43   164    81  15.7  -6.0 37.33  9.58  0.89  2.88 210.0  2.62 0.375  3.00  4573     9   605  3959   887  3072     0  0.00     0     0  2368     0 37.94 10.42  59.8     0     0   444   295  1.22  0.84  62.6  23.1  2.55  0.00  0.00  0.00  0.00  0.00  0.00   2.0  0.00  0.00  0.00  0.00
 2023  44   165    82  13.9  -6.0 37.90  9.67  0.90  2.88 143.7  2.71 0.393  3.10  4706     9   619  4079   921  3158     0  0.00     0     0  2412     0 38.86 10.84  59.1     0     0   438   294  1.22  0.84  60.8  34.3  3.35  0.00  0.00  0.00  0.00  0.00  0.00   2.0  0.00  0.00  0.00  0.00
 2023  45   166    83  13.7  -6.0 38.45  9.77  0.91  2.88 216.1  2.79 0.412  3.20  4907     9   639  4260   953  3307     0  0.00     0     0  2516     0 39.78 11.27  59.1     0     0   432   293  1.22  0.84  58.0  21.5  1.99  0.00  0.00  0.00  0.00  0.00  0.00   2.0  0.00  0.00  0.00  0.00
 2023  46   167    84  14.2  -6.0 39.03  9.86  0.91  2.88 224.2  2.88 0.431  3.31  5116     9   659  4448   987  3461     0  0.00     0     0  2623     0 40.72 11.72  59.0     0     0   427   291  1.22  0.84  56.2  20.0  1.65  0.00  0.00  0.00  0.00  0.00  0.00   2.0  0.00  0.00  0.00  0.00
 2023  47   168    85  14.1  -6.0 39.61  9.95  0.92  2.88 249.5  2.96 0.451  3.41  5349     9   682  4659  1021  3637     0  0.00     0     0  2750     0 41.67 12.19  59.0     0     0   421   290  1.22  0.85  52.6  16.8  1.28  0.00  0.00  0.01  0.00  0.00  0.00   2.0  0.00  0.00  0.00  0.00
 2023  48   169    86  12.8  -6.0 40.14 10.04  0.93  2.88 181.1  3.06 0.475  3.54  5518     9   698  4812  1061  3751     0  0.00     0     0  2805     0 41.67 12.62  58.3     0     0   416   289  1.22  0.85  96.8  43.2  1.51  0.00  0.00  0.00  0.00  0.00  0.00   2.0  0.00  0.00  0.00  0.00
 2023  49   170    87  17.4  -6.0 40.94 10.04  0.92  2.88 162.4  3.03 0.497  3.52  5671     9   712  4950  1054  3891     0  0.00     0     0  2852     6 41.67 13.23  57.7     0     0   410   287  1.21  0.85 103.2  47.1  8.66  0.00  0.00  0.00  0.00  0.00  0.00   2.0  0.00  0.00  0.00  0.00
 2023  50   171    88  18.8  -6.0 41.79 10.04  0.92  2.88 142.1  2.99 0.515  3.51  5804     9   723  5072  1048  4012     0  0.00     0     0  2894    12 41.67 13.90  57.2     0     0   403   286  1.21  0.85  90.2  45.6 10.31  0.00  0.00  0.00  0.00  0.00  0.00   2.0  0.00  0.00  0.00  0.00
 2023  51   172    89  18.3  -6.0 42.63 10.04  0.92  2.88 174.9  2.96 0.539  3.50  5968     9   737  5222  1042  4163     0  0.00     0     0  2945    18 41.67 14.56  56.6     0     0   397   284  1.21  0.86  83.8  34.8  8.83  0.00  0.00  0.00  0.00  0.00  0.00   2.0  0.00  0.00  0.00  0.00
 2023  52   173    90  16.3  -6.0 43.37 10.04  0.92  2.88 161.2  2.93 0.561  3.49  6120     9   750  5361  1036  4302     0  0.00     0     0  2992    23 41.67 15.16  56.0     0     0   391   282  1.21  0.86  81.8  38.9 10.32  0.00  0.00  0.00  0.00  0.00  0.00   2.0  0.00  0.00  0.00  0.00
 2023  53   174    91  15.3  -6.0 44.07 10.04  0.91  2.88 265.0  2.90 0.599  3.50  6370     9   771  5591  1031  4532     0  0.00     0     0  3066    28 41.67 15.74  55.1     0     0   386   281  1.21  0.87  77.9  23.0  6.44  0.00  0.00  0.00  0.00  0.00  0.00   2.0  0.00  0.00  0.00  0.00
 2023  54   175    92  16.1  -6.0 44.81 10.04  0.91  2.88 265.7  2.87 0.637  3.50  6622     9   791  5822  1026  4764     0  0.00     0     0  3141    33 41.67 16.36  54.3     0     0   381   280  1.21  0.87  73.8  21.0  5.52  0.00  0.00  0.00  0.00  0.00  0.00   2.0  0.00  0.00  0.00  0.00
 2023  55   176    93  13.1  -6.0 45.41 10.04  0.91  2.88 170.6  2.84 0.661  3.50  6783     9   803  5971  1021  4913     0  0.00     0     0  3190    37 41.67 16.88  53.8     0     0   378   278  1.21  0.87  71.4  33.8  7.91  0.00  0.00  0.00  0.00  0.00  0.00   2.0  0.00  0.00  0.00  0.00
 2023  56   177    94  15.6  -6.0 46.13 10.04  0.91  2.88 167.6  2.81 0.684  3.50  6942     9   815  6118  1015  5061     0  0.00     0     0  3239    42 41.67 17.51  53.3     0     0   373   277  1.21  0.88  68.8  31.5  6.66  0.00  0.00  0.00  0.00  0.00  0.00   2.0  0.00  0.00  0.00  0.00
 2023  57   178    95  17.0  -6.0 46.90 10.04  0.91  2.88 271.7  2.78 0.724  3.51  7200     9   834  6358  1009  5301     0  0.00     0     0  3316    48 41.67 18.20  52.6     0     0   368   276  1.21  0.88  64.6  17.8  3.48  0.00  0.00  0.00  0.00  0.00  0.00   2.0  0.00  0.00  0.00  0.00
 2023  58   179    96  16.0  -6.0 47.63 10.04  0.90  2.88 271.0  2.75 0.763  3.52  7458     9   852  6597  1003  5541     0  0.00     0     0  3393    53 41.67 18.87  51.9     0     0   364   275  1.21  0.88  60.4  16.9  2.79  0.00  0.00  0.00  0.00  0.00  0.00   2.0  0.00  0.00  0.00  0.00
 2023  59   180    97  16.1  -6.0 48.37 10.04  0.90  2.88 239.1  2.73 0.798  3.52  7685     9   867  6810   998  5754     0  0.00     0     0  3462    58 41.67 19.55  51.3     0     0   360   273  1.21  0.89  56.9  18.0  2.50  0.00  0.00  0.00  0.00  0.00  0.00   2.0  0.00  0.00  0.00  0.00
 2023  60   181    98  12.6  -6.0 48.94 10.04  0.90  2.88  81.7  2.70 0.809  3.51  7763     9   872  6883   993  5793     0  0.00    33    33  3488    63 41.67 20.10  51.2     0     0   357   272  1.21  0.89  55.8  56.8  6.57  0.00  0.00  0.00  0.00  0.00  0.00   2.0  0.00  0.00  0.00  0.00
 2023  61   182    99  14.6  -6.0 49.61 10.04  0.90  2.88 279.4  2.68 0.850  3.53  8030     9   889  7133   988  5881     0  0.00   197   147  3568    67 41.67 20.74  50.5     0     0   353   271  1.21  0.89  52.3  14.9  1.72  0.00  0.00  0.00  0.00  0.00  0.00   2.0  0.00  0.00  0.00  0.00
 2023  62   183   100  14.9  -6.0 51.29 10.04  0.89  2.88 285.1  2.65 0.893  3.54  8303     9   906  7389   982  5861     0  0.00   473   263  3650    72 41.67 21.40  49.9     0     0   350   270  1.21  0.90  48.5  13.3  1.33  0.00  0.00  0.00  0.00  0.00  0.00   2.0  0.00  0.00  0.00  0.00
 2023  63   184   101  14.5  -6.0 54.18 10.04  0.89  2.88 285.7  2.63 0.934  3.56  8577     9   921  7647   977  5854     0  0.00   739   381  3732    77 41.67 22.05  49.3     0     0   346   269  1.21  0.91  44.8  12.2  1.05  0.00  0.00  0.20  0.00  0.00  0.00   2.0  0.00  0.00  0.00  0.00
 2023  64   185   102  15.5  -6.0 57.28 10.04  0.89  2.29 230.4  2.60 0.966  3.57  8798     9   934  7855   971  5826     0  0.00   975   475  3799    82 41.67 22.77  48.9     0     0   343   268  1.21  0.90  41.7  11.0  0.80  0.40  0.20  0.39  0.00  0.00  0.00   2.0  0.00  0.00  0.00  0.00
 2023  65   186   103  16.9  -6.0 61.64 10.04  0.89  1.92 185.8  2.57 0.990  3.56  8975     9   945  8022   965  5811     0  0.00  1159   551  3855    87 41.67 23.56  48.6     0     0   339   267  1.21  0.90  39.2  10.5  0.67  0.66  0.33  0.49  0.00  0.00  0.00   2.0  0.00  0.00  0.00  0.00
 2023  66   187   104  16.9  -6.0 70.01 10.04  0.89  2.11 158.6  2.55 1.011  3.56  9128     9   952  8168   959  5810     0  0.00  1307   618  3904    93 41.67 24.35  48.3     0     0   336   266  1.21  0.92  86.8  29.9  0.74  0.53  0.26  0.43  0.00  0.00  0.00   2.0  0.00  0.00  0.00  0.00
 2023  67   188   105  18.4  -6.0 71.43 10.04  0.88  2.88 252.0  2.52 1.048  3.56  9375     9   956  8410   952  5887     0  0.00  1473   729  3982    98 41.67 25.23  47.9 14535 .0000   332   264  1.21  0.96  82.5  23.4  5.21  0.00  0.00  0.00  0.00  0.00  0.00   2.0  0.00  0.00  0.00  0.00
 2023  68   189   106  19.7  -6.0 72.94 10.04  0.88  2.88 274.0  2.48 1.090  3.57  9646     9   959  8679   945  5904    37  0.00  1690   887  4033   105 41.67 26.17  47.2 14535 .0003   329   263  1.21  0.98  77.7  19.8  6.53  0.00  0.00  0.00  0.00  0.00  0.00   2.0  0.00  0.00  0.00  0.00
 2023  69   190   107  19.4  -6.0 74.43 10.04  0.88  2.88 284.4  2.45 1.085  3.54  9927     9   961  8958   937  5915   110  0.01  1884   961  4244   111 41.67 27.10  48.6 14535 .0008   325   262  1.21  0.98  72.8  18.1  6.18  0.00  0.00  0.00  0.00  0.00  0.00   2.0  0.00  0.00  0.00  0.00
 2023  70   191   108  19.6  -6.0 75.95 10.04  0.87  2.88 279.6  2.42 1.080  3.50 10204     9   964  9232   930  6035   223  0.02  1927  1074  4411   117 41.67 28.05  49.6 14535 .0015   322   260  1.21  0.98  67.9  17.1  5.38  0.00  0.00  0.00  0.00  0.00  0.00   2.0  0.00  0.00  0.00  0.00
 2023  71   192   109  22.8  -6.0 77.70 10.04  0.87  2.88 277.2  2.39 1.074  3.46 10478     9   966  9503   921  6107   398  0.04  1953  1249  4515   124 41.67 29.14  50.3 14535 .0027   318   259  1.21  0.98  62.8  15.0  3.79  0.00  0.00  0.00  0.00  0.00  0.00   2.0  0.00  0.18  0.00  0.00
 2023  72   193   110  22.0  -6.0 79.39 10.04  0.86  2.88 282.2  2.35 1.069  3.42 10757     9   968  9780   912  6149   618  0.06  1969  1468  4579   131 41.67 30.20  50.7 14535 .0042   314   258  1.21  0.98  58.3  14.0  2.74  0.00  0.00  0.00  0.00  0.00  0.00   2.0  0.00  0.13  0.00  0.00
 2023  73   194   111  19.8  -6.0 80.25 10.04  0.86  2.88 288.4  2.32 1.064  3.39 11042     9   971 10063   905  6180   858  0.09  1981  1709  4628   138 41.67 31.16  51.0 14535 .0059   311   256  1.21  0.98  54.1  13.2  2.04  0.00  0.00  0.00  0.00  0.00  0.00   2.0  0.00  0.00  0.00  0.00
 2023  74   195   112  19.5  -6.0 80.65 10.04  0.86  2.88 252.6  2.31 1.059  3.37 11291     9   973 10310   904  6172  1116  0.11  1979  1966  4620   140 41.67 32.11  51.0 14535 .0077   309   255  1.21  0.98  50.5  14.2  1.75  0.00  0.00  0.00  0.00  0.00  0.00   2.0  0.00  0.00  0.00  0.00
 2023  75   196   113  20.5  -6.0 81.08 10.04  0.86  2.88 231.1  2.29 1.055  3.35 11520     9   974 10537   902  6138  1387  0.13  1967  2238  4578   142 41.67 33.10  50.8 14535 .0095   306   254  1.21  0.98  47.1  14.3  1.47  0.00  0.00  0.00  0.00  0.00  0.00   2.0  0.00  0.03  0.00  0.00
 2023  76   197   114  20.0  -6.0 81.50 10.04  0.86  2.88  98.7  2.28 1.050  3.33 11616     9   975 10633   901  6011  1653  0.16  1924  2503  4411   145 41.67 34.08  49.9 14535 .0114   303   253  1.21  0.98  98.1  71.7  2.80  0.00  0.00  0.00  0.00  0.00  0.00   1.9  0.00  0.00  0.00  0.00
 2023  77   198   115  19.0  -6.0 81.90 10.04  0.85  2.88 268.4  2.27 1.046  3.31 11882     9   977 10896   900  6018  1905  0.17  1926  2755  4424   147 41.67 35.01  50.0 14535 .0131   301   252  1.20  0.98 116.4  31.1  6.32  0.00  0.00  0.00  0.00  0.00  0.00   2.0  0.00  0.00  0.00  0.00
 2023  78   199   116  19.0  -6.0 82.29 10.04  0.85  2.88 281.4  2.25 1.042  3.30 12160     9   979 11172   899  6035  2157  0.19  1932  3007  4450   149 41.67 35.94  50.2 14535 .0148   298   251  1.20  0.98  98.8  25.0  7.16  0.00  0.00  0.00  0.00  0.00  0.00   2.0  0.00  0.00  0.00  0.00
 2023  79   200   117  19.0  -6.0 82.69 10.04  0.85  2.88 278.4  2.24 1.038  3.28 12435     9   982 11445   897  6049  2409  0.21  1938  3260  4473   152 41.67 36.87  50.3 14535 .0166   296   250  1.20  0.98  84.8  22.0  6.85  0.00  0.00  0.00  0.00  0.00  0.00   2.0  0.00  0.00  0.00  0.00
 2023  80   201   118  20.1  -6.0 83.11 10.04  0.85  2.88 275.4  2.23 1.033  3.26 12707     9   984 11715   896  6051  2675  0.23  1938  3526  4479   154 41.67 37.86  50.4 14535 .0184   294   249  1.20  0.98  79.2  20.6  7.16  0.00  0.00  0.00  0.00  0.00  0.00   2.0  0.00  0.01  0.00  0.00
 2023  81   202   119  20.2  -6.0 83.53 10.04  0.84  2.88 274.9  2.15 1.029  3.18 12979     9   986 11984   867  6056  2943  0.25  1945  3794  4500   173 41.67 38.86  50.7 14535 .0202   291   248  1.20  0.98  74.2  18.9  6.73  0.00  0.00  0.00  0.00  0.00  0.00   2.0  0.00  0.02  0.00  0.00
 2023  82   203   120  19.6  -6.0 83.94 10.04  0.83  2.88 282.3  2.07 1.025  3.09 13258     9   989 12261   837  6073  3203  0.26  1956  4053  4536   192 41.67 39.82  51.2 14535 .0220   289   247  1.20  0.98  69.9  17.7  6.01  0.00  0.00  0.00  0.00  0.00  0.00   2.0  0.00  0.00  0.00  0.00
 2023  83   204   121  17.6  -6.0 84.31 10.04  0.82  2.88 297.4  1.99 1.022  3.01 13552     9   992 12552   809  6120  3436  0.27  1977  4286  4613   211 41.67 40.69  51.8 14535 .0236   287   246  1.20  0.98  65.8  16.5  4.69  0.00  0.00  0.00  0.00  0.00  0.00   2.0  0.00  0.00  0.00  0.00
 2023  84   205   122  17.1  -6.0 84.66 10.04  0.80  2.88 281.4  1.92 1.019  2.93 13831     9   994 12828   783  6160  3662  0.29  1995  4513  4679   228 41.67 41.54  52.4 14535 .0252   286   245  1.20  0.98  62.0  16.7  3.87  0.00  0.00  0.00  0.00  0.00  0.00   2.0  0.00  0.00  0.00  0.00
 2023  85   206   123  17.5  -6.0 85.03 10.04  0.79  2.88 279.8  1.85 1.015  2.86 14107     9   997 13102   758  6195  3894  0.30  2012  4744  4738   244 41.67 42.41  52.9 14535 .0268   284   244  1.20  0.98  58.1  15.5  2.94  0.00  0.00  0.00  0.00  0.00  0.00   2.0  0.00  0.00  0.00  0.00
 2023  86   207   124  17.5  -6.0 85.39 10.04  0.78  2.88 214.2  1.78 1.012  2.79 14319     9   998 13312   731  6182  4126  0.31  2011  4977  4733   261 41.67 43.28  53.0 14535 .0284   282   243  1.20  0.98  90.2  31.5  2.95  0.00  0.00  0.00  0.00  0.00  0.00   2.0  0.00  0.00  0.00  0.00
 2023  87   208   125  18.8  -6.0 85.79 10.04  0.77  2.88 253.3  1.71 1.009  2.72 14569     9  1000 13560   705  6186  4375  0.32  2017  5225  4749   278 41.67 44.22  53.3 14535 .0301   281   242  1.20  0.98  83.5  23.6  7.51  0.00  0.00  0.00  0.00  0.00  0.00   2.0  0.00  0.00  0.00  0.00
 2023  88   209   126  18.0  -6.0 86.16 10.04  0.75  2.88 257.7  1.63 1.005  2.64 14824     9  1003 13813   677  6200  4613  0.33  2027  5463  4782   296 41.67 45.12  53.7 14535 .0317   279   241  1.20  0.98  78.4  22.2  8.05  0.00  0.00  0.00  0.00  0.00  0.00   2.0  0.00  0.00  0.00  0.00
 2023  89   210   127  19.3  -6.0 86.56 10.04  0.73  2.88 249.3  1.56 1.002  2.56 15070     9  1005 14057   650  6196  4868  0.35  2030  5719  4788   313 41.67 46.09  53.9 14535 .0335   278   240  1.20  0.98  73.9  21.3  7.88  0.00  0.00  0.00  0.00  0.00  0.00   2.0  0.00  0.00  0.00  0.00
 2023  90   211   128  18.7  -6.0 86.95 10.04  0.72  2.88 269.5  1.49 0.999  2.48 15337     9  1007 14321   620  6213  5116  0.36  2041  5966  4823   332 41.67 47.03  54.3 14535 .0352   276   240  1.20  0.98  70.1  19.1  6.77  0.00  0.00  0.00  0.00  0.00  0.00   2.0  0.00  0.00  0.00  0.00
 2023  91   212   129  19.4  -6.0 87.36 10.04  0.70  2.88 255.8  1.41 0.995  2.41 15590     9  1009 14572   591  6213  5372  0.37  2046  6223  4835   350 41.67 48.00  54.6 14535 .0370   275   239  1.20  0.98  66.5  18.8  5.60  0.00  0.00  0.00  0.00  0.00  0.00   2.0  0.00  0.00  0.00  0.00
 2023  92   213   130  20.8  -6.0 87.79 10.04  0.68  2.88 243.2  1.33 0.992  2.33 15830     9  1011 14810   561  6190  5648  0.38  2043  6499  4816   368 41.67 49.05  54.8 14535 .0389   273   238  1.20  0.98  62.9  18.3  4.47  0.00  0.00  0.00  0.00  0.00  0.00   2.0  0.00  0.06  0.00  0.00
 2023  93   214   131  18.6  -6.0 88.18 10.04  0.66  2.88 225.4  1.25 0.989  2.24 16052     9  1013 15031   529  6175  5895  0.39  2044  6746  4810   388 41.67 50.00  55.0 14535 .0406   272   237  1.20  0.98  59.8  19.5  3.92  0.00  0.00  0.00  0.00  0.00  0.00   2.0  0.00  0.00  0.00  0.00
 2023  94   215   132  17.1  -6.0 88.54 10.04  0.63  2.88 239.4  1.18 0.982  2.16 16289     9  1015 15266   500  6166  6121  0.40  2058  6972  4837   421 41.67 50.86  55.4 14535 .0421   271   236  1.20  0.98  56.6  18.2  3.12  0.00  0.00  0.00  0.00  0.00  0.00   2.0  0.00  0.00  0.00  0.00
 2023  95   216   133  15.9  -6.0 88.87 10.04  0.61  2.88 227.6  1.11 0.976  2.09 16514     9  1017 15489   473  6162  6329  0.41  2073  7180  4868   452 41.67 51.67  55.9 14535 .0435   269   235  1.20  0.98  53.6  18.6  2.70  0.00  0.00  0.00  0.00  0.00  0.00   2.0  0.00  0.00  0.00  0.00
 2023  96   217   134  15.9  -6.0 89.20 10.04  0.59  2.88 230.4  1.05 0.970  2.02 16742     9  1018 15715   447  6159  6538  0.42  2088  7389  4900   481 41.67 52.47  56.4 14535 .0450   268   235  1.20  0.98  50.6  17.2  2.16  0.00  0.00  0.00  0.00  0.00  0.00   2.0  0.00  0.00  0.00  0.00
 2023  97   218   135  17.3  -6.0 89.56 10.04  0.57  2.88 222.5  0.99 0.964  1.95 16961     9  1020 15933   422  6135  6768  0.42  2097  7618  4905   511 41.67 53.35  56.7 14535 .0466   267   234  1.20  0.98  47.6  16.3  1.77  0.00  0.00  0.00  0.00  0.00  0.00   1.8  0.00  0.00  0.00  0.00
 2023  98   219   136  19.2  -6.0 89.96 10.04  0.54  2.88 216.5  0.92 0.957  1.88 17175     9  1022 16145   394  6085  7022  0.43  2099  7872  4879   545 41.67 54.33  56.9 14535 .0483   266   233  1.20  0.98  44.6  15.0  1.43  0.00  0.00  0.00  0.00  0.00  0.00   1.4  0.00  0.00  0.00  0.00
 2023  99   220   137  20.0  -6.0 90.91 10.04  0.51  2.88 208.3  0.84 0.950  1.79 17381     9  1023 16349   363  6196  7050  0.43  2159  7900  5074   581 41.67 55.36  58.2 14535 .0485   265   232  1.20  0.98  41.6  14.4  1.19  0.00  0.00  0.09  0.00  0.00  0.00   1.2  0.00  0.00  0.00  0.00

*DSSAT Cropping System Model Ver. 4.8.2.000 -release  JUL 07, 2025 11:09:34

*RUN   2        : WW23_G-2                  CSCER048 CIOB2301    2
 MODEL          : CSCER048 - Wheat
 EXPERIMENT     : CIOB2301 WH ROOTS ANATOMY
 DATA PATH      : C:\DSSAT48\Wheat\
 TREATMENT  2   : WW23_G-2                  CSCER048
  
@YEAR DOY   DAS   DAP TMEAN TKILL  GSTD  L#SD PARID PARUD  AWAD  LAID  SAID  CAID  TWAD SDWAD  RWAD  CWAD  LWAD  SWAD  HWAD  HIAD CHWAD  EWAD RSWAD SNWPD SNWLD SNWSD  RS%D  H#AD  HWUD  T#AD  SLAD  RDPD  PTFD  SWXD WAVRD WUPRD  WFTD  WFPD  WFGD  NFTD  NFPD  NFGD NUPRD  TFPD  TFGD VRNFD DYLFD
 2022 327    83     0  17.6  -6.0  0.00  0.00  0.00  0.00   0.0  0.00 0.000  0.00    43    43     0     0     0     0     0  0.00     0     0     0     0     0     0   0.0     0     0   150   -99  0.04  0.98  19.7  99.9  1.00  0.00  0.00  0.00  0.00  0.00  0.00   0.0  0.00  0.00  0.60  0.00
 2022 328    84     1  16.4  -6.0  5.84  0.00  0.00  0.00   0.0  0.00 0.000  0.00    43    43     0     0     0     0     0  0.00     0     0     0     0     0     0   0.0     0     0   150   -99  0.04  0.98   7.2  99.9  1.00  0.00  0.00  0.00  0.00  0.00  0.00   0.0  0.00  0.00  0.60  0.00
 2022 329    85     2  17.4  -6.0  8.40  0.00  0.00  0.00   0.0  0.00 0.000  0.00    43    41     1     0     0     0     0  0.00     0     0     0     0     0     0   0.0     0     0   150   -99  0.07  0.98   4.4  99.9  1.00  0.00  0.00  0.00  0.00  0.00  0.00   0.0  0.00  0.00  0.60  0.00
 2022 330    86     3  18.0  -6.0 10.00  0.00  0.00  0.00   0.0  0.00 0.000  0.00    43    40     3     0     0     0     0  0.00     0     0     0     0     0 .0012   0.0     0     0   150   -99  0.09  0.98   3.8  99.9  1.00  0.00  0.00  0.00  0.00  0.00  0.00   2.0  0.00  0.00  0.60  0.00
 2022 331    87     4  16.3  -6.0 10.35  0.35  0.01  0.00   0.0  0.01 0.001  0.01    43    35     4     4     3     1     0  0.00     0     0     0     0     0 .0034   0.0     0     0   150   400  0.12  0.75   3.9  99.9  1.00  0.00  0.00  0.00  0.00  0.00  0.00   0.3  0.00  0.00  0.60  0.04
 2022 332    88     5  16.1  -6.0 10.69  0.69  0.01  2.28   1.6  0.02 0.001  0.02    44    31     5     7     4     3     0  0.00     0     0     1     0     0 .0066  15.9     0     0   150   397  0.14  0.73   4.2  99.9  0.79  0.41  0.21  0.39  0.00  0.00  0.00   0.3  0.00  0.00  0.60  0.04
 2022 333    89     6  18.1  -6.0 11.07  1.07  0.02  1.81   2.0  0.02 0.002  0.02    46    28     7    11     6     5     0  0.00     0     0     3     0     0 .0113  23.6     0     0   150   397  0.17  0.72   5.7  99.9  0.64  0.73  0.36  0.51  0.01  0.01  0.01   0.5  0.00  0.00  0.60  0.04
 2022 334    90     7  18.5  -6.0 11.46  1.46  0.02  2.02   3.0  0.03 0.003  0.03    48    24     8    16     8     9     0  0.00     0     0     5     0     0 .0173  29.7     0     0   150   394  0.20  0.73   7.2  99.9  0.70  0.59  0.30  0.46  0.00  0.00  0.00   0.6  0.00  0.00  0.60  0.04
 2022 335    91     8  19.2  -6.0 11.87  1.87  0.03  1.95   3.8  0.04 0.003  0.04    52    21     9    22     9    12     0  0.00     0     0     8     0     0 .0250  34.8     0     0   150   393  0.23  0.72   8.9  99.9  0.68  0.64  0.32  0.48  0.00  0.00  0.00   0.8  0.00  0.00  0.60  0.04
 2022 336    92     9  23.0  -6.0 12.18  2.18  0.03  1.91   4.5  0.04 0.004  0.05    56    18    11    27    11    16     0  0.00     0     0    11     0     0 .0359  40.3     0     0   150   392  0.26  0.72  10.9  99.9  0.67  0.67  0.33  0.49  0.00  0.00  0.00   1.4  0.00  0.20  0.60  0.04
 2022 337    93    10  23.0  -6.0 12.42  2.42  0.04  2.40   5.8  0.05 0.004  0.05    61    15    13    33    12    21     0  0.00     0     0    15     0     0 .0487  45.7     0     0   150   390  0.29  0.74  12.8  99.9  0.83  0.33  0.17  0.36  0.00  0.00  0.00   1.8  0.00  0.20  0.60  0.04
 2022 338    94    11  22.0  -6.0 12.66  2.66  0.04  2.81   7.2  0.05 0.005  0.06    68    12    15    41    14    27     0  0.00     0     0    21     0     0 .0629  50.2     0     0   150   388  0.33  0.76  14.7  99.9  0.98  0.05  0.02  0.25  0.00  0.00  0.00   1.9  0.00  0.13  0.60  0.04
 2022 339    95    12  22.2  -6.0 12.89  2.89  0.05  2.87   3.4  0.06 0.005  0.07    71     9    16    45    16    30     0  0.00     0     0    22     0     0 .0792  48.1     0     0   150   386  0.36  0.76  17.0  99.9  2.56  0.00  0.00  0.00  0.00  0.00  0.00   1.8  0.00  0.15  0.60  0.04
 2022 340    96    13  19.7  -6.0 13.10  3.10  0.06  2.87   2.8  0.07 0.006  0.08    73     9    16    48    18    30     0  0.00     0     0    21     0     0 .0948  43.5     0     0   150   384  0.38  0.76  20.1  99.9  3.63  0.00  0.00  0.00  0.00  0.00  0.00   1.9  0.00  0.00  0.60  0.04
 2022 341    97    14  20.0  -6.0 13.31  3.31  0.07  2.87   5.4  0.08 0.007  0.09    78     9    17    52    21    31     0  0.00     0     0    21     0     0 0.111  40.5     0     0   150   382  0.40  0.76  20.6  99.9  2.03  0.00  0.00  0.00  0.00  0.00  0.00   1.9  0.00  0.00  0.60  0.04
 2022 342    98    15  20.8  -6.0 13.53  3.53  0.07  2.48  11.1  0.09 0.008  0.09    88     9    19    61    23    38     0  0.00     0     0    27     0     0 0.129  44.4     0     0   150   381  0.42  0.75  21.2  99.9  0.86  0.28  0.14  0.34  0.00  0.00  0.00   2.0  0.00  0.05  0.60  0.04
 2022 343    99    16  18.0  -6.0 13.72  3.72  0.07  2.40  12.8  0.09 0.008  0.10    99     9    21    70    24    46     0  0.00     0     0    34     0     0 0.146  48.7     0     0   150   379  0.44  0.75  22.2  99.9  0.84  0.33  0.16  0.36  0.00  0.00  0.00   2.0  0.00  0.00  0.60  0.04
 2022 344   100    17  17.0  -6.0 13.91  3.91  0.08  2.42  14.5  0.10 0.009  0.11   112     9    23    81    26    55     0  0.00     0     0    43     0     0 0.164  52.8     0     0   150   378  0.45  0.75  23.1  99.9  0.84  0.31  0.16  0.35  0.00  0.00  0.00   2.0  0.00  0.00  0.60  0.04
 2022 345   101    18  16.2  -6.0 14.08  4.08  0.08  2.68  16.2  0.10 0.009  0.11   127     9    25    93    27    66     0  0.00     0     0    53     0     0 0.182  56.4     0     0   150   377  0.47  0.76  24.0  99.9  0.93  0.14  0.07  0.28  0.00  0.00  0.00   2.0  0.00  0.00  0.60  0.04
 2022 346   102    19  16.1  -6.0 14.25  4.25  0.09  2.78  18.1  0.11 0.010  0.12   143     9    28   106    28    78     0  0.00     0     0    64     0 0.702 0.203  60.4     0     0   150   376  0.48  0.76  24.8  99.9  0.97  0.07  0.03  0.26  0.00  0.00  0.00   2.0  0.00  0.00  0.60  0.04
 2022 347   103    20  15.1  -6.0 14.41  4.41  0.09  2.87  18.3  0.11 0.010  0.12   159     9    30   120    29    91     0  0.00     0     0    76     0 1.361 0.224  63.3     0     0   150   374  0.50  0.77  72.3  99.9  1.12  0.00  0.00  0.14  0.00  0.00  0.00   2.0  0.00  0.00  0.60  0.04
 2022 348   104    21  15.2  -6.0 14.57  4.57  0.09  2.87  20.3  0.11 0.011  0.13   176     9    33   135    31   104     0  0.00     0     0    88     0 2.026 0.247  65.7     0     0   150   373  0.51  0.77  55.4  99.9  3.32  0.00  0.00  0.00  0.00  0.00  0.00   2.0  0.00  0.00  0.60  0.04
 2022 349   105    22  14.6  -6.0 14.73  4.73  0.10  2.88  20.7  0.12 0.011  0.13   195     9    36   150    32   118     0  0.00     0     0   102     0 2.669 0.271  67.7     0     0   169   371  0.53  0.77  40.3  99.9  3.73  0.00  0.00  0.00  0.00  0.00  0.00   2.0  0.00  0.00  0.60  0.04
 2022 350   106    23  12.5  -6.0 14.86  4.86  0.10  2.88  11.9  0.12 0.012  0.14   205     9    38   159    34   125     0  0.00     0     0   108     0 3.219 0.294  68.1     0     0   185   370  0.54  0.77  34.2  99.9  5.41  0.00  0.00  0.00  0.00  0.00  0.00   2.0  0.00  0.00  0.57  0.04
 2022 351   107    24  14.9  -6.0 15.02  5.02  0.11  2.88  21.2  0.13 0.012  0.14   223     9    41   174    35   139     0  0.00     0     0   121     0 3.878 0.322  69.2     0     0   204   369  0.55  0.77  32.6  99.9  2.96  0.00  0.00  0.00  0.00  0.00  0.00   2.0  0.00  0.00  0.57  0.04
 2022 352   108    25  15.5  -6.0 15.18  5.18  0.11  2.88  22.4  0.14 0.013  0.15   243     9    44   191    38   153     0  0.00     0     0   133     0 4.450 0.353  69.6     0     0   223   367  0.57  0.77  33.2  99.9  2.91  0.00  0.00  0.00  0.00  0.00  0.00   2.0  0.00  0.00  0.57  0.04
 2022 353   109    26  14.8  -6.0 15.34  5.34  0.12  2.88  24.3  0.15 0.015  0.17   265     9    47   209    41   168     0  0.00     0     0   146     0 4.996 0.385  70.0     0     0   242   365  0.58  0.77  33.8  99.9  2.76  0.00  0.00  0.00  0.00  0.00  0.00   2.0  0.00  0.00  0.57  0.04
 2022 354   110    27  16.6  -6.0 15.51  5.51  0.13  2.88  23.7  0.16 0.016  0.18   285     9    50   227    45   182     0  0.00     0     0   158     0 5.614 0.424  69.8     0     0   263   363  0.60  0.77  34.5  99.9  2.78  0.00  0.00  0.00  0.00  0.00  0.00   2.0  0.00  0.00  0.57  0.04
 2022 355   111    28  15.2  -6.0 15.67  5.67  0.14  2.88  28.6  0.18 0.017  0.19   311     9    54   248    49   199     0  0.00     0     0   174     0 6.184 0.463  70.0     0     0   283   361  0.61  0.77  35.1  98.2  2.39  0.00  0.00  0.00  0.00  0.00  0.00   2.0  0.00  0.00  0.57  0.04
 2022 356   112    29  15.3  -6.0 21.01  5.84  0.15  2.88  31.1  0.19 0.019  0.21   338     9    58   272    53   219     0  0.00     0     0   191     0 6.760 0.504  70.3     0     0   302   360  0.63  0.77  35.7  91.5  2.25  0.00  0.00  0.00  0.00  0.00  0.00   2.0  0.00  0.00  0.57  0.04
 2022 357   113    30  15.9  -6.0 21.15  6.01  0.17  2.88  32.9  0.21 0.021  0.24   368     9    63   297    60   237     0  0.00     0     0   205     0 7.360 0.551  69.2     0     0   322   358  0.64  0.77  36.1  86.0  2.16  0.00  0.00  0.00  0.00  0.00  0.00   2.0  0.00  0.00  0.57  0.04
 2022 358   114    31  16.2  -6.0 21.29  6.18  0.19  2.88  36.9  0.24 0.024  0.26   400     9    68   324    68   256     0  0.00     0     0   220     0 8.267 0.601  68.0     0     0   343   355  0.65  0.77  36.6  77.5  1.99  0.00  0.00  0.00  0.00  0.00  0.00   2.0  0.00  0.00  0.57  0.04
 2022 359   115    32  17.8  -6.0 21.44  6.37  0.20  2.88  41.2  0.27 0.027  0.30   437     9    73   355    77   279     0  0.00     0     0   238     0 9.265 0.661  66.9     0     0   366   352  0.67  0.78  37.0  67.6  1.78  0.00  0.00  0.00  0.00  0.00  0.00   2.0  0.00  0.00  0.59  0.04
 2022 360   116    33  17.0  -6.0 21.58  6.55  0.22  2.88  46.3  0.30 0.030  0.33   478     9    79   390    85   305     0  0.00     0     0   260     0 10.23 0.723  66.6     0     0   387   351  0.68  0.78  37.4  61.9  1.66  0.00  0.00  0.00  0.00  0.00  0.00   2.0  0.00  0.00  0.59  0.04
 2022 361   117    34  17.5  -6.0 21.73  6.73  0.24  2.88  49.8  0.33 0.033  0.36   522     9    86   428    94   334     0  0.00     0     0   284     0 11.22 0.793  66.4     0     0   410   349  0.70  0.78  37.7  57.2  1.54  0.00  0.00  0.00  0.00  0.00  0.00   2.0  0.00  0.00  0.60  0.04
 2022 362   118    35  16.6  -6.0 21.87  6.91  0.26  2.88  33.8  0.35 0.036  0.39   552     9    90   453   102   351     0  0.00     0     0   296     0 12.17 0.864  65.4     0     0   431   348  0.71  0.78  38.2  89.1  2.38  0.00  0.00  0.00  0.00  0.00  0.00   2.0  0.00  0.00  0.60  0.04
 2022 363   119    36  17.2  -6.0 22.02  7.09  0.28  2.88  15.7  0.38 0.040  0.42   565     9    92   464   111   353     0  0.00     0     0   294     0 12.99 0.942  63.2     0     0   453   346  0.72  0.78  39.2  99.9  5.19  0.00  0.00  0.00  0.00  0.00  0.00   2.0  0.00  0.00  0.60  0.04
 2022 364   120    37  18.6  -6.0 22.18  7.29  0.31  2.88  58.6  0.43 0.045  0.48   617     9   100   509   126   383     0  0.00     0     0   315     0 14.41 1.028  62.0     0     0   476   344  0.74  0.78  39.6  50.6  1.31  0.00  0.00  0.00  0.00  0.00  0.00   1.7  0.00  0.00  0.60  0.04
 2022 365   121    38  17.8  -6.0 22.33  7.48  0.33  2.88  67.5  0.47 0.049  0.52   677     9   109   560   137   423     0  0.00     0     0   348     0 15.77 1.117  62.1     0     0   499   342  0.75  0.78  39.7  44.5  1.14  0.00  0.00  0.12  0.00  0.00  0.00   2.0  0.00  0.00  0.60  0.04
 2023   1   122    39  16.6  -6.0 22.47  7.65  0.35  2.88  63.4  0.51 0.054  0.56   734     9   117   608   150   458     0  0.00     0     0   376     0 17.05 1.207  61.9     0     0   520   340  0.77  0.78  39.9  49.7  1.26  0.00  0.00  0.03  0.00  0.00  0.00   2.0  0.00  0.00  0.60  0.04
 2023   2   123    40  15.1  -6.0 22.66  7.82  0.37  2.88  55.7  0.55 0.058  0.61   783     9   124   650   162   489     0  0.00     0     0   400     0 18.21 1.296  61.5     0     0   549   339  0.78  0.78  40.1  58.7  1.48  0.00  0.00  0.00  0.00  0.00  0.00   2.0  0.00  0.00  0.60  0.04
 2023   3   124    41  13.8  -6.0 22.84  7.96  0.39  2.88  80.9  0.58 0.061  0.64   856     9   135   713   170   543     0  0.00     0     0   449     0 19.28 1.382  63.1     0     0   575   338  0.79  0.78  80.8  82.9  1.04  0.00  0.00  0.20  0.00  0.00  0.00   2.0  0.00  0.00  0.59  0.04
 2023   4   125    42  16.3  -6.0 23.04  8.13  0.42  2.88  86.7  0.64 0.068  0.70   934     9   146   779   189   591     0  0.00     0     0   487     0 20.23 1.491  62.5     0     0   606   337  0.80  0.78  63.9  54.5  3.38  0.00  0.00  0.00  0.00  0.00  0.00   2.0  0.00  0.00  0.59  0.04
 2023   5   126    43  17.6  -6.0 23.27  8.32  0.46  2.88  96.6  0.72 0.078  0.79  1020     9   159   853   214   639     0  0.00     0     0   520     0 22.20 1.620  60.9     0     0   640   334  0.82  0.78  55.2  42.0  3.27  0.00  0.00  0.00  0.00  0.00  0.00   2.0  0.00  0.00  0.60  0.04
 2023   6   127    44  18.3  -6.0 23.50  8.52  0.49  2.88 103.6  0.80 0.087  0.89  1113     9   172   932   241   691     0  0.00     0     0   557     0 24.26 1.765  59.7     0     0   675   332  0.83  0.78  52.2  37.3  2.67  0.00  0.00  0.00  0.00  0.00  0.00   2.0  0.00  0.00  0.60  0.04
 2023   7   128    45  17.7  -6.0 23.73  8.70  0.53  2.88 108.6  0.88 0.097  0.98  1210     9   186  1016   267   749     0  0.00     0     0   599     0 26.27 1.918  59.0     0     0   709   331  0.85  0.78  51.4  35.8  2.50  0.00  0.00  0.00  0.00  0.00  0.00   2.0  0.00  0.00  0.60  0.04
 2023   8   129    46  17.3  -6.0 23.95  8.89  0.56  2.88 116.1  0.96 0.106  1.07  1314     9   201  1105   292   812     0  0.00     0     0   648     0 28.23 2.078  58.7     0     0   742   329  0.86  0.79  50.9  33.4  2.33  0.00  0.00  0.00  0.00  0.00  0.00   2.0  0.00  0.00  0.60  0.04
 2023   9   130    47  16.6  -6.0 24.16  9.06  0.59  2.88 128.5  1.05 0.117  1.17  1429     9   217  1204   322   882     0  0.00     0     0   701     0 30.13 2.245  58.2     0     0   774   328  0.88  0.79  50.1  30.1  2.04  0.00  0.00  0.00  0.00  0.00  0.00   2.0  0.00  0.00  0.60  0.04
 2023  10   131    48  17.2  -6.0 24.38  9.25  0.64  2.88 131.8  1.19 0.133  1.32  1546     9   234  1303   366   938     0  0.00     0     0   731     0 34.10 2.432  56.1     0     0   807   325  0.89  0.79  49.4  28.4  1.79  0.00  0.00  0.00  0.00  0.00  0.00   1.5  0.00  0.00  0.60  0.04
 2023  11   132    49  17.9  -6.0 24.60  9.44  0.68  2.88 149.0  1.33 0.150  1.48  1678     9   252  1417   411  1005     0  0.00     0     0   771     0 38.26 2.641  54.4     0     0   841   323  0.91  0.79  48.3  24.2  1.45  0.00  0.00  0.00  0.00  0.00  0.00   1.5  0.00  0.00  0.60  0.04
 2023  12   133    50  18.4  -6.0 24.84  9.63  0.71  2.88 159.6  1.47 0.168  1.64  1819     9   272  1538   457  1081     0  0.00     0     0   819     0 42.55 2.873  53.2     0     0   876   321  0.92  0.79  47.2  22.1  1.26  0.00  0.00  0.03  0.00  0.00  0.00   1.4  0.00  0.00  0.60  0.04
 2023  13   134    51  16.6  -6.0 25.05  9.81  0.74  2.88 166.0  1.59 0.182  1.77  1967     9   293  1665   496  1169     0  0.00     0     0   884     0 46.46 3.100  53.1     0     0   908   320  0.93  0.79  46.0  21.1  1.18  0.00  0.00  0.09  0.00  0.00  0.00   1.7  0.00  0.00  0.60  0.04
 2023  14   135    52  17.6  -6.0 25.28  9.99  0.77  2.88 170.3  1.71 0.197  1.90  2118     9   314  1795   535  1260     0  0.00     0     0   951     0 50.61 3.358  53.0     0     0   941   319  0.95  0.79  44.7  19.6  1.04  0.00  0.00  0.20  0.00  0.00  0.00   1.6  0.00  0.00  0.60  0.04
 2023  15   136    53  16.9  -6.0 25.49 10.17  0.81  2.88 121.1  1.94 0.224  2.16  2227     9   329  1889   612  1277     0  0.00     0     0   929     0 52.93 3.623  49.2     0     0   973   317  0.96  0.79  44.2  28.3  1.35  0.00  0.00  0.00  0.00  0.00  0.00   0.9  0.00  0.00  0.60  0.04
 2023  16   137    54  17.0  -6.0 25.62 10.35  0.83  2.28 147.1  2.06 0.239  2.30  2353     9   349  1995   653  1341     0  0.00     0     0   968     0 60.12 3.903  48.5     0     0   993   316  0.98  0.77  43.3  17.9  0.80  0.40  0.20  0.39  0.01  0.01  0.01   1.3  0.00  0.00  0.60  0.04
 2023  17   138    55  14.1  -6.0 25.80 10.50  0.85  2.86  56.8  2.24 0.260  2.50  2399     9   356  2034   714  1320     0  0.00     0     0   919     0 66.13 4.149  45.2     0     0  1020   314  0.99  0.79  43.8  63.0  2.51  0.00  0.00  0.00  0.01  0.01  0.01   1.1  0.00  0.00  0.59  0.04
 2023  18   139    56  13.8  -6.0 25.88 10.65  0.86  2.09 137.1  2.33 0.271  2.60  2517     9   375  2133   744  1388     0  0.00     0     0   969     0 72.03 4.395  45.4     0     0  1032   313  1.00  0.77  42.9  18.4  0.73  0.54  0.27  0.44  0.00  0.00  0.00   1.8  0.00  0.00  0.58  0.04
 2023  19   140    57  14.2  -6.0 25.93 10.80  0.87  1.88 123.9  2.41 0.282  2.69  2622     9   393  2221   771  1449     0  0.00     0     0  1012     0 78.13 4.662  45.6     0     0  1040   312  1.01  0.76  42.2  17.8  0.65  0.69  0.35  0.50  0.00  0.00  0.00   2.0  0.00  0.00  0.57  0.04
 2023  20   141    58  13.8  -6.0 25.95 10.95  0.87  1.55 115.7  2.42 0.284  2.70  2709     9   410  2290   776  1514     0  0.00     0     0  1070     0 94.84 4.932  46.7     0     0  1042   311  1.02  0.75  97.8  36.5  0.54  0.92  0.46  0.58  0.00  0.00  0.00   2.0  0.00  0.00  0.56  0.04
 2023  21   142    59  14.1  -6.0 26.13 11.09  0.90  2.88 215.6  2.69 0.318  3.01  2907     9   437  2462   868  1593     0  0.00     0     0  1098     0 94.84 5.222  44.6     0     0  1069   310  1.03  0.79  81.0  29.9  4.46  0.00  0.00  0.00  0.00  0.00  0.00   2.0  0.00  0.00  0.55  0.04
 2023  22   143    60  14.1  -6.0 26.31 11.24  0.92  2.88 227.4  2.99 0.356  3.35  3107     9   464  2634   973  1661     0  0.00     0     0  1108     0 103.2 5.528  42.0     0     0  1096   308  1.05  0.79  72.5  25.2  4.47  0.00  0.00  0.00  0.00  0.00  0.00   1.5  0.00  0.00  0.54  0.04
 2023  23   144    61  12.6  -6.0 26.46 11.38  0.94  2.88 197.4  3.26 0.390  3.65  3280     9   488  2783  1067  1716     0  0.00     0     0  1112     0 110.8 5.820  40.0     0     0  1120   306  1.06  0.80  70.2  29.3  5.52  0.00  0.00  0.00  0.00  0.00  0.00   1.9  0.00  0.00  0.51  0.04
 2023  24   145    62  13.1  -6.0 26.63 11.52  0.95  2.88 238.6  3.55 0.425  3.97  3491     9   517  2965  1165  1800     0  0.00     0     0  1140     0 118.7 6.139  38.4     0     0  1145   304  1.07  0.80  67.8  23.1  4.22  0.00  0.00  0.00  0.00  0.00  0.00   1.8  0.00  0.00  0.49  0.04
 2023  25   146    63  14.5  -6.0 26.82 11.67  0.96  2.88 243.4  3.86 0.465  4.32  3705     9   546  3151  1274  1876     0  0.00     0     0  1156     0 127.5 6.514  36.7     0     0  1172   303  1.08  0.80  65.3  20.9  3.55  0.00  0.00  0.00  0.00  0.00  0.00   1.5  0.00  0.00  0.48  0.04
 2023  26   147    64  15.7  -6.0 27.02 11.84  0.97  2.88 226.9  4.19 0.507  4.70  3904     9   574  3322  1392  1930     0  0.00     0     0  1148     0 137.1 6.942  34.6     0     0  1202   301  1.09  0.80  63.1  21.2  3.32  0.00  0.00  0.00  0.00  0.00  0.00   1.4  0.00  0.00  0.48  0.04
 2023  27   148    65  12.1  -6.0 27.17 11.96  0.98  2.88 183.0  4.48 0.542  5.02  4064     9   595  3461  1493  1968     0  0.00     0     0  1134     0 144.5 7.290  32.8     0     0  1225   300  1.10  0.80  61.5  27.2  3.79  0.00  0.00  0.00  0.00  0.00  0.00   1.6  0.00  0.00  0.45  0.04
 2023  28   149    66  15.6  -6.0 27.37 12.13  0.99  2.88 205.3  4.98 0.602  5.59  4247     9   620  3619  1668  1951     0  0.00     0     0  1034     0 150.4 7.755  28.6     0     0  1255   299  1.11  0.80  59.7  21.7  2.73  0.00  0.00  0.00  0.00  0.00  0.00   0.9  0.00  0.00  0.45  0.04
 2023  29   150    67  14.4  -6.0 27.55 12.28  0.99  2.85 248.6  5.47 0.663  6.13  4458     9   649  3800  1842  1959     0  0.00     0     0   956     0 167.3 8.202  25.2     0     0  1283   297  1.13  0.80  57.3  17.4  1.95  0.00  0.00  0.00  0.01  0.01  0.01   0.7  0.00  0.00  0.45  0.04
 2023  30   151    68  14.6  -6.0 27.55 12.44  0.99  2.78 217.7  5.95 0.722  6.67  4655     9   675  3971  2014  1957     0  0.00     0     0   872     0 170.4 8.675  22.0     0     0  1283   295  1.14  0.80  55.2  18.6  1.81  0.00  0.00  0.00  0.03  0.03  0.03   0.8  0.00  0.00  0.00  0.00
 2023  31   152    69  14.5  -6.0 27.55 12.59  1.00  2.77 223.0  6.40 0.779  7.18  4854     9   702  4143  2179  1965     0  0.00     0     0   799     0 176.1 9.164  19.3     0     0  1283   294  1.15  0.80  53.1  17.4  1.51  0.00  0.00  0.00  0.04  0.04  0.04   0.7  0.00  0.00  0.00  0.00
 2023  32   153    70  13.4  -6.0 27.55 12.73  1.00  2.75 165.4  6.76 0.824  7.59  5000     9   721  4270  2312  1958     0  0.00     0     0   732     0 181.3 9.632  17.1     0     0  1283   292  1.16  0.80  51.7  23.4  1.80  0.00  0.00  0.00  0.05  0.05  0.05   0.9  0.00  0.00  0.00  0.00
 2023  33   154    71  15.9  -6.0 27.55 12.90  1.00  2.76 228.7  7.19 0.878  8.06  5204     9   747  4448  2468  1980     0  0.00     0     0   676     0 187.5 10.20  15.2     0     0  1283   291  1.17  0.80  49.4  15.3  1.11  0.00  0.00  0.15  0.04  0.04  0.04   0.7  0.00  0.00  0.00  0.00
 2023  34   155    72  16.9  -6.0 27.55 13.08  1.00  2.52 207.6  7.56 0.927  8.49  5388     9   772  4607  2609  1999     0  0.00     0     0   625     0 194.2 10.83  13.6     0     0  1283   290  1.19  0.80  94.1  28.2  0.92  0.17  0.08  0.29  0.04  0.04  0.04   0.7  0.00  0.00  0.00  0.00
 2023  35   156    73  16.9  -6.0 30.42 13.26  1.00  2.75 234.7  7.91 0.980  8.89  5597     9   798  4790  2757  2033     0  0.00     0     0   583     0 200.9 11.49  12.2     0     0  1254   287  1.20  0.81  88.1  25.5  5.36  0.00  0.00  0.00  0.04  0.04  0.04   1.3  0.00  0.00  0.00  0.00
 2023  36   157    74  18.1  -6.0 31.16 13.45  1.00  2.81 239.6  8.25 1.032  9.28  5810     9   824  4977  2903  2075     0  0.00     0     0   546     0 208.1 12.21  11.0     0     0  1224   284  1.22  0.81  83.1  23.4  6.62  0.00  0.00  0.00  0.02  0.02  0.02   1.8  0.00  0.00  0.00  0.00
 2023  37   158    75  16.7  -6.0 31.84 13.63  1.00  2.86 234.4  8.57 1.083  9.65  6020     9   850  5162  3043  2119     0  0.00     0     0   514     0 214.8 12.90  10.0     0     0  1198   282  1.22  0.82  79.9  24.4  7.25  0.00  0.00  0.00  0.00  0.00  0.00   1.9  0.00  0.00  0.00  0.00
 2023  38   159    76  16.2  -6.0 32.50 13.80  1.00  2.88 255.7  8.90 1.137 10.04  6250     9   877  5365  3189  2176     0  0.00     0     0   487     0 221.3 13.59   9.1     0     0  1174   279  1.22  0.82  76.4  21.9  6.64  0.00  0.00  0.00  0.00  0.00  0.00   2.0  0.00  0.00  0.00  0.00
 2023  39   160    77  18.1  -6.0 33.23 13.99  1.00  2.88 263.0  9.23 1.191 10.42  6486     9   904  5574  3332  2242     0  0.00     0     0   466     0 228.7 14.38   8.4     0     0  1147   277  1.22  0.82  72.7  19.2  5.45  0.00  0.00  0.00  0.00  0.00  0.00   2.0  0.00  0.00  0.00  0.00
 2023  40   161    78  15.1  -6.0 33.85 14.15  1.00  2.88 265.9  9.55 1.246 10.80  6727     9   931  5787  3475  2312     0  0.00     0     0   447     0 234.9 15.06   7.7     0     0  1126   275  1.22  0.82  69.0  19.1  4.51  0.00  0.00  0.00  0.00  0.00  0.00   2.0  0.00  0.00  0.00  0.00
 2023  41   162    79  17.1  -6.0 34.54 14.33  1.00  2.88 234.3  9.82 1.294 11.11  6937     9   955  5974  3600  2374     0  0.00     0     0   429     0 241.9 15.86   7.2     0     0  1102   273  1.22  0.83  65.7  19.8  3.95  0.00  0.00  0.00  0.00  0.00  0.00   2.0  0.00  0.00  0.00  0.00
 2023  42   163    80  14.0  -6.0 35.11 14.48  1.00  2.88  84.8  9.93 1.316 11.25  7010     9   963  6038  3666  2372     0  0.00     0     0   400     0 247.7 16.53   6.6     0     0  1084   271  1.22  0.83  64.6  58.4  9.79  0.00  0.00  0.00  0.00  0.00  0.00   2.0  0.00  0.00  0.00  0.00
 2023  43   164    81  15.7  -6.0 35.75 14.65  1.00  2.88 238.6 10.18 1.364 11.55  7225     9   986  6230  3785  2445     0  0.00     0     0   389     0 254.2 17.29   6.2     0     0  1064   269  1.22  0.83  61.4  18.9  3.14  0.00  0.00  0.00  0.00  0.00  0.00   2.0  0.00  0.00  0.00  0.00
 2023  44   165    82  13.9  -6.0 36.32 14.80  1.00  2.88 161.0 10.36 1.398 11.76  7369     9  1001  6359  3853  2506     0  0.00     0     0   372     0 260.0 17.97   5.8     0     0  1047   269  1.22  0.83  59.3  28.5  4.07  0.00  0.00  0.00  0.00  0.00  0.00   2.0  0.00  0.00  0.00  0.00
 2023  45   166    83  13.7  -6.0 36.87 14.94  1.00  2.88 240.1 10.60 1.446 12.05  7587     9  1024  6554  3943  2611     0  0.00     0     0   365     0 265.7 18.66   5.6     0     0  1030   269  1.22  0.84  56.1  17.9  2.41  0.00  0.00  0.00  0.00  0.00  0.00   2.0  0.00  0.00  0.00  0.00
 2023  46   167    84  14.2  -6.0 37.45 15.09  1.00  2.88 247.3 10.85 1.494 12.34  7811     9  1048  6755  4035  2720     0  0.00     0     0   361     0 271.6 19.38   5.3     0     0  1014   269  1.22  0.84  56.7  17.5  1.96  0.00  0.00  0.00  0.00  0.00  0.00   2.0  0.00  0.00  0.00  0.00
 2023  47   168    85  14.1  -6.0 38.02 15.24  1.00  2.88 273.2 11.10 1.547 12.64  8060     9  1073  6979  4137  2842     0  0.00     0     0   361     0 277.6 20.12   5.2     0     0   998   268  1.22  0.84  53.1  14.9  2.36  0.00  0.00  0.00  0.00  0.00  0.00   2.0  0.00  0.00  0.00  0.00
 2023  48   169    86  12.8  -6.0 38.54 15.38  1.00  2.88 197.0 11.28 1.587 12.87  8239     9  1091  7139  4207  2933     0  0.00     0     0   353     0 283.0 20.81   4.9     0     0   984   268  1.22  0.84  97.3  38.4  2.52  0.00  0.00  0.00  0.00  0.00  0.00   2.0  0.00  0.00  0.00  0.00
 2023  49   170    87  17.4  -6.0 39.25 15.56  1.00  2.88 175.4 11.42 1.622 13.04  8395     9  1106  7280  4266  3014     0  0.00     0     0   346     0 290.4 21.76   4.8     0     0   965   268  1.21  0.84 103.7  42.4 11.20  0.00  0.00  0.00  0.00  0.00  0.00   2.0  0.00  0.00  0.00  0.00
 2023  50   171    88  18.8  -6.0 40.02 15.76  1.00  2.88 153.9 11.53 1.653 13.19  8530     9  1119  7402  4315  3087     0  0.00     0     0   339     0 298.4 22.80   4.6     0     0   946   267  1.21  0.85  90.5  41.0 14.33  0.00  0.00  0.00  0.00  0.00  0.00   2.0  0.00  0.00  0.00  0.00
 2023  51   172    89  18.3  -6.0 40.85 15.76  1.00  2.88 189.8 11.39 1.670 13.06  8708     9  1136  7564  4355  3184     0  0.00     0     0   412    25 298.4 23.82   5.5     0     0   928   262  1.21  0.85  84.0  31.0 12.15  0.00  0.00  0.00  0.00  0.00  0.00   2.0  0.00  0.00  0.00  0.00
 2023  52   173    90  16.3  -6.0 41.60 15.76  1.00  2.88 175.4 11.27 1.686 12.96  8872     9  1150  7714  4393  3274     0  0.00     0     0   479    47 298.4 24.75   6.2     0     0   912   257  1.21  0.85  82.1  34.6 14.06  0.00  0.00  0.00  0.00  0.00  0.00   2.0  0.00  0.00  0.00  0.00
 2023  53   174    91  15.3  -6.0 42.30 15.76  1.00  2.88 289.0 11.15 1.720 12.87  9144     9  1174  7962  4416  3478     0  0.00     0     0   574    68 298.4 25.63   7.3     0     0   898   253  1.21  0.86  78.3  20.4  8.81  0.00  0.00  0.00  0.00  0.00  0.00   2.0  0.00  0.00  0.00  0.00
 2023  54   175    92  16.1  -6.0 43.04 15.76  1.00  2.88 290.4 11.03 1.753 12.78  9417     9  1197  8212  4392  3730     0  0.00     0     0   672    90 298.4 26.58   8.3     0     0   883   251  1.21  0.86  74.3  18.6  8.17  0.00  0.00  0.00  0.00  0.00  0.00   2.0  0.00  0.00  0.00  0.00
 2023  55   176    93  13.1  -6.0 43.64 15.76  1.00  2.88 186.9 10.93 1.773 12.71  9593     9  1211  8373  4374  3891     0  0.00     0     0   738   108 298.4 27.37   8.9     0     0   872   250  1.21  0.87  71.9  29.9 10.98  0.00  0.00  0.00  0.00  0.00  0.00   2.0  0.00  0.00  0.00  0.00
 2023  56   177    94  15.6  -6.0 44.35 15.76  1.00  2.88 184.0 10.82 1.791 12.61  9767     9  1225  8533  4350  4054     0  0.00     0     0   808   130 298.4 28.32   9.6     0     0   858   249  1.21  0.87  69.4  27.7  9.27  0.00  0.00  0.00  0.00  0.00  0.00   2.0  0.00  0.00  0.00  0.00
 2023  57   178    95  17.0  -6.0 45.13 15.76  1.00  2.88 299.1 10.69 1.826 12.52 10049     9  1247  8794  4324  4317     0  0.00     0     0   909   153 298.4 29.35  10.5     0     0   844   247  1.21  0.87  65.2  15.7  4.77  0.00  0.00  0.00  0.00  0.00  0.00   2.0  0.00  0.00  0.00  0.00
 2023  58   179    96  16.0  -6.0 45.86 15.76  1.00  2.88 299.1 10.58 1.862 12.44 10332     9  1268  9056  4300  4581     0  0.00     0     0  1010   175 298.4 30.35  11.4     0     0   832   246  1.21  0.88  61.1  14.9  3.73  0.00  0.00  0.00  0.00  0.00  0.00   2.0  0.00  0.00  0.00  0.00
 2023  59   180    97  16.1  -6.0 46.59 15.76  1.00  2.88 264.6 10.46 1.892 12.35 10583     9  1286  9288  4275  4815     0  0.00     0     0  1102   198 298.4 31.37  12.1     0     0   819   245  1.21  0.88  57.4  15.7  3.25  0.00  0.00  0.00  0.00  0.00  0.00   2.0  0.00  0.00  0.00  0.00
 2023  60   181    98  12.6  -6.0 47.17 15.76  1.00  2.88  90.6 10.37 1.898 12.27 10669     9  1292  9368  4258  4895     0  0.00     0     0  1144   215 298.4 32.19  12.5     0     0   810   244  1.21  0.88  56.3  49.4  8.36  0.00  0.00  0.00  0.00  0.00  0.00   2.0  0.00  0.00  0.00  0.00
 2023  61   182    99  14.6  -6.0 47.84 15.76  1.00  2.88 310.6 10.27 1.936 12.20 10964     9  1312  9644  4234  5174     0  0.00     0     0  1247   236 298.4 33.13  13.3     0     0   799   242  1.21  0.89  52.3  12.8  2.18  0.00  0.00  0.00  0.00  0.00  0.00   2.0  0.00  0.00  0.00  0.00
 2023  62   183   100  14.9  -6.0 48.52 15.76  1.00  2.88 317.7 10.16 1.976 12.14 11267     9  1332  9926  4210  5459     0  0.00     0     0  1353   257 298.4 34.11  14.0     0     0   789   241  1.21  0.89  48.1  11.3  1.64  0.00  0.00  0.00  0.00  0.00  0.00   2.0  0.00  0.00  0.00  0.00
 2023  63   184   101  14.5  -6.0 49.18 15.76  1.00  2.88 319.2 10.06 2.017 12.08 11571     9  1352 10211  4188  5617     0  0.00   130   130  1458   277 298.4 35.07  14.7     0     0   779   240  1.21  0.89  43.8  10.2  1.26  0.00  0.00  0.03  0.00  0.00  0.00   2.0  0.00  0.00  0.00  0.00
 2023  64   185   102  15.5  -6.0 49.89 15.76  1.00  2.67 299.8  9.95 2.053 12.01 11857     9  1371 10477  4162  5738     0  0.00   278   251  1560   299 298.4 36.12  15.3     0     0   769   239  1.21  0.89  39.6   8.9  0.93  0.15  0.07  0.29  0.00  0.00  0.00   2.0  0.00  0.00  0.00  0.00
 2023  65   186   103  16.9  -6.0 52.88 15.76  1.00  2.10 227.3  9.84 2.077 11.91 12071     9  1387 10676  4134  5822     0  0.00   397   341  1643   323 298.4 37.28  15.9     0     0   759   238  1.21  0.87  36.4   8.2  0.73  0.54  0.27  0.44  0.00  0.00  0.00   2.0  0.00  0.00  0.00  0.00
 2023  66   187   104  16.9  -6.0 56.25 15.76  1.00  2.22 187.2  9.73 2.085 11.81 12249     9  1398 10842  4109  5891     0  0.00   497   417  1716   345 298.4 38.45  16.3     0     0   748   237  1.21  0.89  86.3  25.1  0.77  0.46  0.23  0.41  0.00  0.00  0.00   2.0  0.00  0.00  0.00  0.00
 2023  67   188   105  18.4  -6.0 59.93 15.76  1.00  2.88 284.6  9.61 2.110 11.72 12524     9  1409 11107  4081  6016     0  0.00   641   537  1819   369 298.4 39.73  16.9     0     0   738   235  1.21  0.93  82.1  19.9  5.84  0.00  0.00  0.00  0.00  0.00  0.00   2.0  0.00  0.00  0.00  0.00
 2023  68   189   106  19.7  -6.0 69.68 15.76  1.00  2.88 310.5  9.48 2.138 11.62 12827     9  1418 11400  4050  6142     0  0.00   812   671  1934   396 298.4 41.12  17.6     0     0   726   234  1.21  0.94  77.5  16.7  7.80  0.00  0.00  0.00  0.00  0.00  0.00   2.0  0.00  0.00  0.00  0.00
 2023  69   190   107  19.4  -6.0 71.44 15.76  1.00  2.88 323.4  9.36 2.170 11.53 13144     9  1424 11711  4020  6272     0  0.00   997   812  2053   421 298.4 42.50  18.2     0     0   716   233  1.21  0.96  72.7  15.1  7.68  0.00  0.00  0.00  0.00  0.00  0.00   2.0  0.00  0.00  0.00  0.00
 2023  70   191   108  19.6  -6.0 72.95 15.76  1.00  2.88 319.1  9.24 2.202 11.44 13459     9  1427 12024  3990  6357    50  0.00  1179  1005  2123   448 298.4 43.90  18.4 15693 .0003   706   231  1.21  0.98  67.9  14.3  6.94  0.00  0.00  0.00  0.00  0.00  0.00   2.0  0.00  0.00  0.00  0.00
 2023  71   192   109  22.8  -6.0 74.70 15.76  1.00  2.88 317.7  9.09 2.177 11.27 13772     9  1429 12335  3952  6469   170  0.01  1266  1124  2345   478 298.4 45.52  20.1 15693 .0011   694   230  1.21  0.98  62.9  12.5  4.65  0.00  0.00  0.00  0.00  0.00  0.00   2.0  0.00  0.18  0.00  0.00
 2023  72   193   110  22.0  -6.0 76.40 15.76  1.00  2.88 324.8  8.96 2.153 11.11 14093     9  1431 12653  3918  6574   354  0.03  1300  1308  2509   508 298.4 47.09  21.3 15693 .0023   684   229  1.21  0.98  57.8  11.5  3.22  0.00  0.00  0.00  0.00  0.00  0.00   2.0  0.00  0.13  0.00  0.00
 2023  73   194   111  19.8  -6.0 77.92 15.76  1.00  2.88 333.4  8.84 2.132 10.97 14422     9  1434 12980  3887  6653   579  0.04  1327  1533  2638   535 298.4 48.51  22.2 15693 .0037   675   227  1.21  0.98  52.9  10.6  2.29  0.00  0.00  0.00  0.00  0.00  0.00   2.0  0.00  0.00  0.00  0.00
 2023  74   195   112  19.5  -6.0 79.42 15.76  1.00  2.88 293.2  8.72 2.112 10.83 14712     9  1436 13268  3856  6665   852  0.06  1334  1807  2678   561 298.4 49.90  22.6 15693 .0054   667   226  1.21  0.98  48.5  11.1  1.88  0.00  0.00  0.00  0.00  0.00  0.00   2.0  0.00  0.00  0.00  0.00
 2023  75   196   113  20.5  -6.0 80.29 15.76  1.00  2.88 268.8  8.60 2.091 10.69 14977     9  1438 13531  3821  6604  1195  0.09  1322  2150  2626   589 298.4 51.37  22.4 15693 .0076   658   225  1.21  0.98  44.5  11.0  1.52  0.00  0.00  0.00  0.00  0.00  0.00   2.0  0.00  0.03  0.00  0.00
 2023  76   197   114  20.0  -6.0 80.73 15.76  1.00  2.88 115.0  8.54 2.071 10.61 15090     9  1438 13644  3815  6403  1560  0.11  1267  2514  2384   599 298.4 52.81  20.8 15693 .0099   650   224  1.21  0.98  96.7  57.5  2.79  0.00  0.00  0.00  0.00  0.00  0.00   2.0  0.00  0.00  0.00  0.00
 2023  77   198   115  19.0  -6.0 81.16 15.76  1.00  2.88 313.3  8.48 2.052 10.53 15399     9  1440 13951  3809  6368  1907  0.14  1258  2861  2355   609 298.4 54.18  20.6 15693 .0121   643   223  1.20  0.98 114.4  25.2  6.70  0.00  0.00  0.00  0.00  0.00  0.00   2.0  0.00  0.00  0.00  0.00
 2023  78   199   116  19.0  -6.0 81.58 15.76  1.00  2.88 329.1  8.43 2.034 10.46 15724     9  1442 14273  3803  6345  2253  0.16  1252  3208  2341   620 298.4 55.56  20.5 15693 .0144   636   222  1.20  0.98  99.7  20.8  8.03  0.00  0.00  0.00  0.00  0.00  0.00   2.0  0.00  0.00  0.00  0.00
 2023  79   200   117  19.0  -6.0 82.00 15.76  1.00  2.88 326.2  8.37 2.016 10.39 16046     9  1445 14593  3796  6321  2600  0.18  1246  3554  2324   630 298.4 56.93  20.5 15693 .0166   629   221  1.20  0.98  85.8  18.1  8.21  0.00  0.00  0.00  0.00  0.00  0.00   2.0  0.00  0.00  0.00  0.00
 2023  80   201   118  20.1  -6.0 82.45 15.76  1.00  2.88 323.3  8.32 1.997 10.31 16366     9  1447 14910  3789  6279  2966  0.20  1236  3920  2286   640 298.4 58.38  20.2 15693 .0189   622   219  1.20  0.98  80.4  17.0  8.97  0.00  0.00  0.00  0.00  0.00  0.00   2.0  0.00  0.01  0.00  0.00
 2023  81   202   119  20.2  -6.0 82.90 15.76  1.00  2.88 323.3  8.26 1.979 10.24 16685     9  1450 15227  3781  6235  3334  0.22  1224  4289  2245   651 298.4 59.85  20.0 15693 .0212   615   218  1.20  0.98  75.5  15.5  8.67  0.00  0.00  0.00  0.00  0.00  0.00   2.0  0.00  0.02  0.00  0.00
 2023  82   203   120  19.6  -6.0 83.33 15.76  1.00  2.88 336.2  8.21 1.961 10.17 17017     9  1452 15556  3775  6211  3691  0.24  1218  4645  2228   662 298.4 61.27  19.9 15693 .0235   609   217  1.20  0.98  70.5  14.3  7.36  0.00  0.00  0.00  0.00  0.00  0.00   2.0  0.00  0.00  0.00  0.00
 2023  83   204   121  17.6  -6.0 83.73 15.76  1.00  2.88 359.2  7.89 1.946  9.84 17372     9  1456 15908  3647  6256  4011  0.25  1249  4966  2344   745 298.4 62.55  21.0 15693 .0256   604   216  1.20  0.98  65.4  12.9  5.24  0.00  0.00  0.00  0.00  0.00  0.00   2.0  0.00  0.00  0.00  0.00
 2023  84   205   122  17.1  -6.0 84.11 15.76  1.00  2.88 344.7  7.61 1.932  9.55 17713     9  1458 16246  3532  6295  4322  0.27  1276  5277  2446   821 298.4 63.79  22.0 15693 .0275   599   216  1.20  0.98  60.6  12.5  4.03  0.00  0.00  0.00  0.00  0.00  0.00   2.0  0.00  0.00  0.00  0.00
 2023  85   206   123  17.5  -6.0 84.49 15.76  1.00  2.88 347.5  7.34 1.917  9.26 18056     9  1461 16587  3419  6331  4641  0.28  1301  5595  2541   894 298.4 65.07  23.0 15693 .0296   594   215  1.20  0.98  55.6  11.2  2.85  0.00  0.00  0.00  0.00  0.00  0.00   2.0  0.00  0.00  0.00  0.00
 2023  86   207   124  17.5  -6.0 84.88 15.76  1.00  2.88 269.8  7.06 1.902  8.97 18323     9  1463 16851  3303  6308  4960  0.29  1311  5914  2561   969 298.4 66.35  23.5 15693 .0316   590   214  1.20  0.98  86.5  22.5  2.64  0.00  0.00  0.00  0.00  0.00  0.00   2.0  0.00  0.00  0.00  0.00
 2023  87   208   125  18.8  -6.0 85.30 15.76  1.00  2.88 324.2  6.79 1.887  8.67 18643     9  1466 17169  3186  6310  5301  0.31  1327  6256  2613  1045 298.4 67.72  24.1 15693 .0338   585   213  1.20  0.98  81.7  17.3  7.85  0.00  0.00  0.00  0.00  0.00  0.00   2.0  0.00  0.00  0.00  0.00
 2023  88   209   126  18.0  -6.0 85.70 15.76  1.00  2.88 335.5  6.49 1.873  8.36 18974     9  1468 17497  3060  6332  5629  0.32  1351  6583  2695  1125 298.4 69.04  25.1 15693 .0359   581   212  1.20  0.98  76.9  15.9  8.66  0.00  0.00  0.00  0.00  0.00  0.00   2.0  0.00  0.00  0.00  0.00
 2023  89   210   127  19.3  -6.0 86.13 15.76  0.99  2.88 330.9  6.21 1.858  8.07 19301     9  1471 17822  2938  6333  5980  0.34  1368  6934  2746  1203 298.4 70.46  25.8 15693 .0381   576   211  1.20  0.98  71.9  14.8  8.15  0.00  0.00  0.00  0.00  0.00  0.00   2.0  0.00  0.00  0.00  0.00
 2023  90   211   128  18.7  -6.0 86.55 15.76  0.99  2.88 364.9  5.91 1.843  7.75 19662     9  1474 18179  2807  6370  6320  0.35  1396  7275  2847  1286 298.4 71.83  26.9 15693 .0403   572   210  1.20  0.98  66.6  12.6  5.95  0.00  0.00  0.00  0.00  0.00  0.00   2.0  0.00  0.00  0.00  0.00
 2023  91   212   129  19.4  -6.0 86.98 15.76  0.99  2.88 354.3  5.61 1.829  7.44 20012     9  1477 18527  2678  6389  6672  0.36  1420  7627  2923  1367 298.4 73.26  27.9 15693 .0425   568   210  1.20  0.98  61.3  11.7  4.17  0.00  0.00  0.00  0.00  0.00  0.00   2.0  0.00  0.00  0.00  0.00
 2023  92   213   130  20.8  -6.0 87.44 15.76  0.99  2.88 345.1  5.31 1.813  7.12 20353     9  1479 18865  2544  6382  7052  0.37  1436  8006  2965  1451 298.4 74.80  28.6 15693 .0449   563   209  1.20  0.98  56.0  10.7  2.91  0.00  0.00  0.00  0.00  0.00  0.00   2.0  0.00  0.06  0.00  0.00
[...]
 2023  38   159    66  16.2  -6.0 29.79 35.29  0.42  1.41  51.3  0.64 0.142  0.79  1281    15   362   904   343   560     0  0.00     0     0   301     0 930.5 6.589  33.3     0     0  2912   188  1.07  0.75  40.3  32.9  0.49  1.00  0.51  0.62  0.00  0.00  0.00   2.0  0.00  0.00  0.53  0.01
 2023  39   160    67  18.1  -6.0 29.79 35.89  0.45  1.25  48.3  0.71 0.154  0.87  1319    15   369   934   379   555     0  0.00     0     0   278     0 935.9 6.918  29.7     0     0  2912   187  1.08  0.74  40.8  30.0  0.43  1.00  0.57  0.67  0.00  0.00  0.00   2.0  0.00  0.00  0.00  0.00
 2023  40   161    68  15.1  -6.0 29.79 36.39  0.48  1.20  50.2  0.77 0.166  0.94  1357    15   377   965   413   552     0  0.00     0     0   258     0 942.2 7.197  26.7     0     0  2912   187  1.09  0.74  41.2  29.4  0.42  1.00  0.58  0.68  0.00  0.00  0.00   1.6  0.00  0.00  0.00  0.00
 2023  41   162    69  17.1  -6.0 29.79 36.97  0.51  1.21  47.6  0.83 0.176  1.00  1393    15   384   994   444   550     0  0.00     0     0   241     0 949.2 7.520  24.3     0     0  2912   186  1.11  0.75  41.7  30.4  0.42  1.00  0.58  0.68  0.00  0.00  0.00   1.2  0.00  0.00  0.00  0.00
 2023  42   163    70  14.0  -6.0 29.79 37.43  0.53  2.88  42.8  0.89 0.189  1.08  1431    15   388  1027   481   546     0  0.00     0     0   220     0 950.2 7.788  21.4     0     0  2912   186  1.12  0.81  42.1  87.6  1.19  0.00  0.00  0.08  0.00  0.00  0.00   1.4  0.00  0.00  0.00  0.00
 2023  43   164    71  15.7  -6.0 29.79 37.96  0.55  1.09  48.3  0.94 0.199  1.14  1466    15   395  1056   507   548     0  0.00     0     0   208     0 958.0 8.093  19.7     0     0  2912   185  1.13  0.75  42.5  28.5  0.38  1.00  0.62  0.71  0.00  0.00  0.00   1.0  0.00  0.00  0.00  0.00
 2023  44   165    72  13.9  -6.0 30.33 38.42  0.57  1.63  50.3  0.98 0.208  1.19  1504    15   402  1086   534   552     0  0.00     0     0   198     0 966.0 8.368  18.2     0     0  2840   184  1.14  0.77  42.8  43.2  0.57  0.86  0.43  0.56  0.00  0.00  0.00   1.5  0.00  0.00  0.00  0.00
 2023  45   166    73  13.7  -6.0 30.89 38.88  0.58  1.04  49.3  1.02 0.217  1.24  1539    15   409  1115   558   557     0  0.00     0     0   189     0 974.3 8.643  17.0     0     0  2770   183  1.16  0.75  43.0  27.9  0.36  1.00  0.64  0.72  0.00  0.00  0.00   1.6  0.00  0.00  0.00  0.00
 2023  46   167    74  14.2  -6.0 31.46 39.35  0.59  0.98  48.9  1.05 0.225  1.28  1575    15   416  1143   580   563     0  0.00     0     0   182     0 983.0 8.933  15.9     0     0  2701   181  1.17  0.75  44.0  27.0  0.34  1.00  0.66  0.74  0.00  0.00  0.00   1.8  0.00  0.00  0.00  0.00
 2023  47   168    75  14.1  -6.0 32.04 39.82  0.60  0.89  50.2  1.08 0.233  1.32  1610    15   423  1172   601   571     0  0.00     0     0   176     0 991.9 9.227  15.0     0     0  2633   180  1.18  0.75  43.6  23.7  0.31  1.00  0.69  0.76  0.00  0.00  0.00   2.0  0.00  0.00  0.00  0.00
 2023  48   169    76  12.8  -6.0 32.56 40.25  0.61  1.19  49.1  1.11 0.241  1.35  1645    15   430  1200   621   579     0  0.00     0     0   171     0  1001 9.498  14.2     0     0  2573   179  1.19  0.76  43.9  32.9  0.41  1.00  0.59  0.68  0.00  0.00  0.00   2.0  0.00  0.00  0.00  0.00
 2023  49   170    77  17.4  -6.0 33.27 40.83  0.62  1.21  45.1  1.14 0.248  1.38  1676    15   436  1225   638   586     0  0.00     0     0   167     0  1011 9.873  13.6     0     0  2494   178  1.20  0.76  49.8  38.1  0.42  1.00  0.58  0.68  0.00  0.00  0.00   2.0  0.00  0.00  0.00  0.00
 2023  50   171    78  18.8  -6.0 34.03 41.45  0.64  2.88  95.3  1.22 0.268  1.49  1763    15   446  1302   689   613     0  0.00     0     0   159     0  1012 10.28  12.2     0     0  2412   177  1.20  0.82  48.0  39.6  1.55  0.00  0.00  0.00  0.00  0.00  0.00   2.0  0.00  0.00  0.00  0.00
 2023  51   172    79  18.3  -6.0 34.78 42.06  0.65  1.63  69.4  1.25 0.278  1.53  1815    15   454  1345   713   632     0  0.00     0     0   160     0  1023 10.69  11.9     0     0  2335   175  1.20  0.78  46.3  30.0  0.57  0.87  0.43  0.56  0.00  0.00  0.00   2.0  0.00  0.00  0.00  0.00
 2023  52   173    80  16.3  -6.0 35.44 42.61  0.66  1.52  60.6  1.28 0.287  1.56  1859    15   462  1382   733   649     0  0.00     0     0   160     0  1034 11.06  11.6     0     0  2269   174  1.20  0.78  45.1  32.8  0.53  0.94  0.47  0.59  0.00  0.00  0.00   2.0  0.00  0.00  0.00  0.00
 2023  53   174    81  15.3  -6.0 36.06 43.12  0.67  0.88  58.4  1.30 0.295  1.59  1901    15   470  1416   751   665     0  0.00     0     0   160     0  1045 11.42  11.3     0     0  2209   173  1.20  0.76  44.0  19.6  0.31  1.00  0.69  0.77  0.00  0.00  0.00   2.0  0.00  0.00  0.00  0.00
 2023  54   175    82  16.1  -6.0 36.72 43.66  0.67  0.80  53.8  1.32 0.302  1.62  1938    15   477  1445   766   679     0  0.00     0     0   160     0  1056 11.80  11.1     0     0  2147   172  1.20  0.76  43.3  18.4  0.28  1.00  0.72  0.79  0.00  0.00  0.00   2.0  0.00  0.00  0.00  0.00
 2023  55   176    83  13.1  -6.0 37.25 44.09  0.68  1.28  55.9  1.34 0.309  1.65  1977    15   484  1478   782   696     0  0.00     0     0   161     0  1067 12.11  10.9     0     0  2099   171  1.20  0.78  42.7  29.8  0.44  1.00  0.56  0.66  0.00  0.00  0.00   2.0  0.00  0.00  0.00  0.00
 2023  56   177    84  15.6  -6.0 37.89 44.62  0.68  1.19  51.7  1.35 0.316  1.67  2012    15   491  1507   795   712     0  0.00     0     0   162     0  1079 12.49  10.7     0     0  2043   170  1.20  0.78  42.0  28.0  0.41  1.00  0.59  0.68  0.00  0.00  0.00   2.0  0.00  0.00  0.00  0.00
 2023  57   178    85  17.0  -6.0 38.58 45.18  0.69  0.69  49.4  1.36 0.322  1.69  2045    15   497  1532   807   726     0  0.00     0     0   163     0  1091 12.90  10.6     0     0  1984   169  1.20  0.77  41.4  16.5  0.24  1.00  0.76  0.81  0.00  0.00  0.00   2.0  0.00  0.00  0.00  0.00
 2023  58   179    86  16.0  -6.0 39.23 45.71  0.69  0.68  48.8  1.37 0.328  1.70  2077    15   503  1558   818   740     0  0.00     0     0   164     0  1103 13.30  10.5     0     0  1930   168  1.20  0.77  40.8  16.4  0.24  1.00  0.76  0.82  0.00  0.00  0.00   2.0  0.00  0.00  0.00  0.00
 2023  59   180    87  16.1  -6.0 39.88 46.25  0.69  0.75  47.5  1.38 0.334  1.72  2107    15   509  1583   828   755     0  0.00     0     0   165     0  1115 13.71  10.4     0     0  1878   167  1.20  0.77  40.2  18.0  0.26  1.00  0.74  0.80  0.00  0.00  0.00   2.0  0.00  0.00  0.00  0.00
 2023  60   181    88  12.6  -6.0 40.45 46.67  0.70  2.35  51.2  1.43 0.346  1.77  2154    15   514  1624   857   767     0  0.00     0     0   156     0  1116 14.03   9.6     0     0  1838   166  1.20  0.83  39.6  56.9  0.82  0.37  0.18  0.37  0.00  0.00  0.00   2.0  0.00  0.00  0.00  0.00
 2023  61   182    89  14.6  -6.0 41.12 46.67  0.69  0.63  47.8  1.38 0.345  1.73  2197    15   520  1661   836   811     0  0.00     0     0   182    15  1116 14.41  11.1     0     0  1793   165  1.20  0.77  39.0  15.4  0.22  1.00  0.78  0.83  0.00  0.00  0.00   2.0  0.00  0.00  0.00  0.00
 2023  62   183    90  14.9  -6.0 41.80 46.67  0.68  0.60  46.1  1.34 0.344  1.68  2239    15   526  1697   815   852     0  0.00     0     0   208    30  1116 14.79  12.5     0     0  1749   164  1.20  0.78  38.4  14.8  0.21  1.00  0.79  0.84  0.00  0.00  0.00   2.0  0.00  0.00  0.00  0.00
 2023  63   184    91  14.5  -6.0 42.46 46.67  0.67  0.60  45.1  1.29 0.344  1.64  2279    15   532  1732   794   893     0  0.00     0     0   233    44  1116 15.17  13.8     0     0  1707   163  1.20  0.78  37.9  14.8  0.21  1.00  0.79  0.84  0.00  0.00  0.00   2.0  0.00  0.00  0.00  0.00
 2023  64   185    92  15.5  -6.0 43.16 46.67  0.65  0.58  43.1  1.25 0.343  1.59  2318    15   537  1766   774   933     0  0.00     0     0   257    59  1116 15.59  15.1     0     0  1664   162  1.20  0.78  37.3  14.3  0.20  1.00  0.80  0.85  0.00  0.00  0.00   2.0  0.00  0.00  0.00  0.00
 2023  65   186    93  16.9  -6.0 43.94 46.67  0.64  0.58  41.4  1.21 0.342  1.55  2356    15   542  1798   753   972     0  0.00     0     0   282    74  1116 16.04  16.3     0     0  1618   160  1.20  0.79  36.8  14.6  0.20  1.00  0.80  0.84  0.00  0.00  0.00   2.0  0.00  0.00  0.00  0.00
 2023  66   187    94  16.9  -6.0 44.70 46.67  0.63  0.75  40.8  1.17 0.341  1.51  2393    15   546  1831   733  1010     0  0.00     0     0   306    88  1116 16.50  17.5     0     0  1573   159  1.20  0.80  36.3  18.9  0.26  1.00  0.74  0.80  0.00  0.00  0.00   2.0  0.00  0.00  0.00  0.00
 2023  67   188    95  18.4  -6.0 45.55 46.67  0.62  0.63  39.0  1.12 0.340  1.46  2428    15   551  1862   713  1047     0  0.00     0     0   329   102  1116 17.00  18.7     0     0  1527   158  1.20  0.80  35.8  15.8  0.22  1.00  0.78  0.83  0.00  0.00  0.00   2.0  0.00  0.00  0.00  0.00
 2023  68   189    96  19.7  -6.0 46.44 46.67  0.60  0.56  37.2  1.08 0.338  1.42  2462    15   555  1892   692  1082     0  0.00     0     0   353   117  1116 17.54  19.9     0     0  1478   156  1.20  0.80  35.3  14.3  0.19  1.00  0.81  0.85  0.00  0.00  0.00   2.0  0.00  0.00  0.00  0.00
 2023  69   190    97  19.4  -6.0 47.33 46.67  0.59  0.54  36.7  1.04 0.337  1.38  2495    15   559  1921   672  1118     0  0.00     0     0   376   131  1116 18.08  21.0     0     0  1433   155  1.20  0.80  34.8  13.9  0.19  1.00  0.81  0.85  0.00  0.00  0.00   2.0  0.00  0.00  0.00  0.00
 2023  70   191    98  19.6  -6.0 48.23 46.67  0.57  0.55  35.9  1.00 0.336  1.34  2527    15   562  1950   652  1152     0  0.00     0     0   399   145  1116 18.63  22.1     0     0  1388   153  1.20  0.81  34.3  14.2  0.19  1.00  0.81  0.85  0.00  0.00  0.00   2.0  0.00  0.00  0.00  0.00
 2023  71   192    99  22.8  -6.0 49.27 46.67  0.56  0.53  33.3  0.96 0.333  1.29  2558    15   565  1977   631  1173     0  0.00    12    12   421   160  1116 19.27  23.2     0     0  1339   152  1.20  0.81  33.9  13.7  0.18  1.00  0.82  0.86  0.00  0.00  0.00   2.0  0.00  0.18  0.00  0.00
 2023  72   193   100  22.0  -6.0 51.19 46.67  0.54  0.53  33.3  0.92 0.332  1.25  2588    15   568  2004   611  1188     0  0.00    31    25   444   174  1116 19.89  24.2     0     0  1293   150  1.20  0.81  33.4  13.9  0.18  1.00  0.82  0.86  0.00  0.00  0.00   2.0  0.00  0.13  0.00  0.00
 2023  73   194   101  19.8  -6.0 55.15 46.67  0.53  0.54  33.9  0.89 0.333  1.22  2619    15   571  2032   595  1201     0  0.00    51    37   464   186  1116 20.45  25.1     0     0  1254   149  1.20  0.82  33.0  14.2  0.19  1.00  0.81  0.86  0.00  0.00  0.00   2.0  0.00  0.00  0.00  0.00
 2023  74   195   102  19.5  -6.0 59.04 46.67  0.52  0.62  33.5  0.85 0.334  1.19  2650    15   574  2060   579  1213     0  0.00    71    50   484   197  1116 21.01  26.0     0     0  1217   148  1.20  0.84  32.6  16.5  0.22  1.00  0.78  0.83  0.00  0.00  0.00   2.0  0.00  0.00  0.00  0.00
 2023  75   196   103  20.5  -6.0 67.84 46.67  0.50  0.67  32.5  0.82 0.336  1.16  2680    15   576  2088   562  1226     0  0.00    92    63   504   209  1116 21.60  26.8     0     0  1179   146  1.20  0.86  32.1  18.1  0.23  1.00  0.77  0.82  0.00  0.00  0.00   2.0  0.00  0.03  0.00  0.00
 2023  76   197   104  20.0  -6.0 71.21 46.67  0.49  1.62  32.6  0.79 0.338  1.13  2711    15   577  2118   546  1239     0  0.00   113    76   524   220  1116 22.17  27.6     0     0  1144   145  1.20  0.92  42.5  58.9  0.56  0.87  0.44  0.57  0.00  0.00  0.00   2.0  0.00  0.00  0.00  0.00
 2023  77   198   105  19.0  -6.0 72.68 46.67  0.48  2.88 153.5  0.78 0.361  1.14  2862    15   579  2268   542  1308     7  0.00   188   152   566   224  1116 22.72  27.8  3208 .0002  1111   144  1.20  0.98  69.2  36.0  2.62  0.00  0.00  0.00  0.00  0.00  0.00   2.0  0.00  0.00  0.00  0.00
 2023  78   199   106  19.0  -6.0 74.14 46.67  0.48  2.88 159.4  0.77 0.358  1.12  3020    15   580  2424   537  1385    22  0.01   252   167   711   227  1116 23.27  32.7  3208 .0007  1080   142  1.20  0.98  65.2  32.6  6.49  0.00  0.00  0.00  0.00  0.00  0.00   2.0  0.00  0.00  0.00  0.00
 2023  79   200   107  19.0  -6.0 75.61 46.67  0.47  2.88 156.1  0.75 0.355  1.11  3174    15   581  2577   532  1491    45  0.02   277   190   844   231  1116 23.83  36.7  3208 .0014  1051   141  1.20  0.98  62.0  32.0  7.02  0.00  0.00  0.00  0.00  0.00  0.00   2.0  0.00  0.00  0.00  0.00
 2023  80   201   108  20.1  -6.0 77.15 46.67  0.47  2.88 152.9  0.74 0.351  1.09  3325    15   583  2727   527  1587    79  0.03   299   223   965   235  1116 24.41  40.0  3208 .0025  1020   140  1.20  0.98  60.0  31.5  6.42  0.00  0.00  0.00  0.00  0.00  0.00   2.0  0.00  0.01  0.00  0.00
 2023  81   202   109  20.2  -6.0 78.71 46.67  0.46  2.88 150.9  0.73 0.348  1.07  3474    15   584  2875   522  1673   122  0.04   319   266  1074   240  1116 25.00  42.7  3208 .0038   991   139  1.20  0.98  58.0  30.2  4.76  0.00  0.00  0.00  0.00  0.00  0.00   2.0  0.00  0.02  0.00  0.00
 2023  82   203   110  19.6  -6.0 80.07 46.67  0.45  2.88 154.8  0.71 0.345  1.06  3627    15   585  3027   517  1756   172  0.06   338   317  1179   244  1116 25.57  45.2  3208 .0054   964   138  1.20  0.98  56.0  29.0  3.78  0.00  0.00  0.00  0.00  0.00  0.00   2.0  0.00  0.00  0.00  0.00
 2023  83   204   111  17.6  -6.0 80.48 46.67  0.45  2.88 163.3  0.71 0.343  1.05  3789    15   587  3187   516  1842   226  0.07   358   370  1287   245  1116 26.09  47.4  3208 .0070   941   137  1.20  0.98  53.9  27.6  2.99  0.00  0.00  0.00  0.00  0.00  0.00   2.0  0.00  0.00  0.00  0.00
 2023  84   205   112  17.1  -6.0 80.89 46.67  0.45  2.88 155.7  0.70 0.340  1.04  3943    15   588  3339   515  1924   277  0.08   376   422  1389   246  1116 26.59  49.3  3208 .0086   919   136  1.20  0.98  52.0  28.2  2.39  0.00  0.00  0.00  0.00  0.00  0.00   2.0  0.00  0.00  0.00  0.00
 2023  85   206   113  17.5  -6.0 81.30 46.67  0.45  2.88 156.0  0.69 0.338  1.03  4097    15   589  3492   514  2005   330  0.09   395   475  1490   248  1116 27.10  51.1  3208 .0103   898   135  1.20  0.98  50.1  26.6  1.82  0.00  0.00  0.00  0.00  0.00  0.00   2.0  0.00  0.00  0.00  0.00
 2023  86   207   114  17.5  -6.0 81.71 46.67  0.44  2.88 120.4  0.69 0.335  1.02  4216    15   590  3610   513  2058   384  0.11   407   528  1556   249  1116 27.62  52.3  3208 .0120   877   134  1.20  0.98  48.5  33.5  1.84  0.00  0.00  0.00  0.00  0.00  0.00   2.0  0.00  0.00  0.00  0.00
 2023  87   208   115  18.8  -6.0 82.16 46.67  0.44  2.88 143.8  0.68 0.333  1.01  4358    15   591  3751   512  2126   440  0.12   422   585  1642   250  1116 28.17  53.7  3208 .0137   856   133  1.20  0.98  46.7  26.3  1.25  0.00  0.00  0.04  0.00  0.00  0.00   2.0  0.00  0.00  0.00  0.00
 2023  88   209   116  18.0  -6.0 82.58 46.67  0.44  2.87 147.6  0.67 0.330  1.00  4504    15   593  3896   511  2199   495  0.13   439   640  1734   252  1116 28.71  55.0  3208 .0154   836   132  1.20  0.98  44.9  24.8  1.00  0.00  0.00  0.23  0.00  0.00  0.00   2.0  0.00  0.00  0.00  0.00
 2023  89   210   117  19.3  -6.0 83.04 46.67  0.43  2.34 117.9  0.67 0.328  1.00  4620    15   593  4011   510  2245   553  0.14   449   698  1792   253  1116 29.28  55.9  3208 .0173   816   131  1.20  0.98  43.4  24.0  0.81  0.37  0.19  0.37  0.00  0.00  0.00   2.0  0.00  0.00  0.00  0.00
 2023  90   211   118  18.7  -6.0 83.48 46.67  0.42  1.86 102.5  0.64 0.325  0.96  4721    15   594  4112   492  2284   610  0.15   460   755  1848   265  1116 29.83  57.1  3208 .0190   797   130  1.20  0.98  42.1  21.6  0.65  0.71  0.35  0.50  0.00  0.00  0.00   2.0  0.00  0.00  0.00  0.00
 2023  91   212   119  19.4  -6.0 83.94 46.67  0.40  1.70  88.4  0.60 0.323  0.92  4808    15   595  4198   464  2313   669  0.16   469   814  1893   283  1116 30.41  58.3  3208 .0208   778   129  1.20  0.98  40.9  21.9  0.59  0.82  0.41  0.55  0.00  0.00  0.00   2.0  0.00  0.00  0.00  0.00
 2023  92   213   120  20.8  -6.0 84.43 46.67  0.38  1.60  77.4  0.56 0.320  0.88  4885    15   595  4274   437  2329   732  0.17   476   877  1924   300  1116 31.03  59.3  3208 .0228   758   128  1.20  0.98  39.9  22.5  0.56  0.89  0.44  0.57  0.00  0.00  0.00   2.0  0.00  0.06  0.00  0.00
 2023  93   214   121  18.6  -6.0 84.87 46.67  0.36  1.68  73.4  0.52 0.318  0.84  4957    15   595  4346   408  2348   789  0.18   484   933  1957   319  1116 31.58  60.4  3208 .0246   741   127  1.20  0.98  39.0  25.3  0.58  0.83  0.42  0.55  0.00  0.00  0.00   2.0  0.00  0.00  0.00  0.00
 2023  94   215   122  17.1  -6.0 85.27 46.67  0.34  1.57  71.0  0.48 0.316  0.80  5027    15   596  4416   381  2368   840  0.19   491   985  1992   335  1116 32.09  61.5  3208 .0262   726   126  1.20  0.98  38.1  25.2  0.55  0.91  0.45  0.58  0.00  0.00  0.00   2.0  0.00  0.00  0.00  0.00
 2023  95   216   123  15.9  -6.0 85.65 46.67  0.32  1.61  67.7  0.45 0.314  0.76  5093    15   596  4482   356  2388   888  0.20   498  1033  2026   351  1116 32.56  62.5  3208 .0277   713   125  1.20  0.98  37.3  27.3  0.56  0.88  0.44  0.57  0.00  0.00  0.00   2.0  0.00  0.00  0.00  0.00
 2023  96   217   124  15.9  -6.0 86.02 46.67  0.30  1.51  62.5  0.42 0.312  0.73  5155    15   596  4543   333  2404   936  0.21   505  1081  2053   365  1116 33.04  63.3  3208 .0292   700   125  1.20  0.98  36.6  26.8  0.52  0.95  0.48  0.60  0.00  0.00  0.00   2.0  0.00  0.00  0.00  0.00
 2023  97   218   125  17.3  -6.0 86.43 46.67  0.28  1.47  57.2  0.38 0.310  0.69  5211    15   596  4599   311  2412   988  0.21   509  1133  2071   379  1116 33.55  64.1  3208 .0308   687   124  1.20  0.98  35.9  27.2  0.51  0.98  0.49  0.61  0.00  0.00  0.00   2.0  0.00  0.00  0.00  0.00
 2023  98   219   126  19.2  -6.0 86.89 46.67  0.26  1.40  51.9  0.35 0.308  0.66  5262    15   596  4650   287  2412  1046  0.23   511  1191  2079   394  1116 34.13  64.8  3208 .0326   672   123  1.20  0.98  35.3  27.1  0.49  1.00  0.51  0.62  0.00  0.00  0.00   2.0  0.00  0.00  0.00  0.00
 2023  99   220   127  20.0  -6.0 87.36 46.67  0.24  1.40  48.5  0.32 0.306  0.62  5310    15   596  4698   261  2407  1107  0.24   513  1252  2081   410  1116 34.72  65.4  3208 .0345   657   122  1.20  0.98  34.6  28.1  0.49  1.00  0.51  0.62  0.00  0.00  0.00   2.0  0.00  0.00  0.00  0.00
 2023 100   221   128  19.5  -6.0 87.82 46.67  0.21  1.59  46.7  0.28 0.303  0.59  5355    15   596  4743   235  2402  1166  0.25   515  1311  2084   426  1116 35.30  66.1  3208 .0364   643   121  1.20  0.98  34.1  32.8  0.55  0.90  0.45  0.58  0.00  0.00  0.00   2.0  0.00  0.00  0.00  0.00
 2023 101   222   129  21.5  -6.0 88.33 46.67  0.19  1.56  43.1  0.25 0.301  0.55  5397    15   596  4786   210  2389  1231  0.26   515  1376  2076   441  1116 35.95  66.7  3208 .0384   629   120  1.20  0.98  33.5  33.2  0.54  0.92  0.46  0.58  0.00  0.00  0.00   2.0  0.00  0.10  0.00  0.00
 2023 102   223   130  20.7  -6.0 88.82 46.67  0.17  1.72  42.3  0.22 0.298  0.52  5439    15   596  4827   182  2371  1294  0.27   517  1439  2072   462  1116 36.56  67.5  3208 .0403   615   119  1.20  0.98  33.0  37.7  0.60  0.80  0.40  0.54  0.00  0.00  0.00   2.0  0.00  0.04  0.00  0.00
 2023 103   224   131  20.1  -6.0 89.29 46.67  0.15  2.30  41.8  0.19 0.295  0.48  5480    15   596  4868   160  2354  1355  0.28   519  1500  2065   480  1116 37.16  68.1  3208 .0422   603   118  1.20  0.98  32.4  51.9  0.80  0.40  0.20  0.38  0.00  0.00  0.00   2.0  0.00  0.01  0.00  0.00
 2023 104   225   132  20.2  -6.0 89.77 46.67  0.13  2.15  40.1  0.16 0.292  0.45  5519    15   596  4907   138  2335  1416  0.29   521  1561  2056   497  1116 37.76  68.7  3208 .0441   591   118  1.20  0.98  31.9  49.6  0.75  0.51  0.25  0.43  0.00  0.00  0.00   2.0  0.00  0.01  0.00  0.00
 2023 105   226   133  19.8  -6.0 90.49 46.67  0.11  2.30  38.5  0.14 0.289  0.42  5556    15   596  4945   116  2340  1447  0.29   528  1592  2077   514  1116 38.35  69.6  3208 .0451   579   117  1.20  0.98  31.5  54.3  0.80  0.40  0.20  0.39  0.00  0.00  0.00   2.0  0.00  0.00  0.00  0.00
