$GROWTH ASPECTS OUTPUT FILE

*DSSAT Cropping System Model Ver. 4.8.2.000 -release  JUN 21, 2025 19:12:05

*RUN   1        : WW23_G-1                  CSCER048 CIOB2301    1
 MODEL          : CSCER048 - Wheat
 EXPERIMENT     : CIOB2301 WH ROOTS ANATOMY
 DATA PATH      : C:\DSSAT48\Wheat\
 TREATMENT  1   : WW23_G-1                  CSCER048
  
@YEAR DOY   DAS   DAP TMEAN TKILL  GSTD  L#SD PARID PARUD  AWAD  LAID  SAID  CAID  TWAD SDWAD  RWAD  CWAD  LWAD  SWAD  HWAD  HIAD CHWAD  EWAD RSWAD SNWPD SNWLD SNWSD  RS%D  H#AD  HWUD  T#AD  SLAD  RDPD  PTFD  SWXD WAVRD WUPRD  WFTD  WFPD  WFGD  NFTD  NFPD  NFGD NUPRD  TFPD  TFGD VRNFD DYLFD
 2022 327    83     0  17.6  -6.0  0.00  0.00  0.00  0.00   0.0  0.00 0.000  0.00    43    43     0     0     0     0     0  0.00     0     0     0     0     0     0   0.0     0     0   150   -99  0.04  0.00  19.7  99.9  1.00  0.00  0.00  0.00  0.00  0.00  0.00   0.0  0.00  0.00  0.60  0.00
 2022 328    84     1  16.4  -6.0  5.84  0.00  0.00  0.00   0.0  0.00 0.000  0.00    43    43     0     0     0     0     0  0.00     0     0     0     0     0     0   0.0     0     0   150   -99  0.04  0.00   7.2  99.9  1.00  0.00  0.00  0.00  0.00  0.00  0.00   0.0  0.00  0.00  0.60  0.00
 2022 329    85     2  17.4  -6.0  8.40  0.00  0.00  0.00   0.0  0.00 0.000  0.00    43    41     1     0     0     0     0  0.00     0     0     0     0     0     0   0.0     0     0   150   -99  0.07  0.00   4.4  99.9  1.00  0.00  0.00  0.00  0.00  0.00  0.00   0.0  0.00  0.00  0.60  0.00
 2022 330    86     3  18.0  -6.0 10.00  0.00  0.00  0.00   0.0  0.00 0.000  0.00    43    40     3     0     0     0     0  0.00     0     0     0     0     0 .0012   0.0     0     0   150   -99  0.09  0.00   3.8  99.9  1.00  0.00  0.00  0.00  0.00  0.00  0.00   2.0  0.00  0.00  0.60  0.00
 2022 331    87     4  16.3  -6.0 10.39  0.39  0.03  0.00   0.0  0.03 0.003  0.03    43    26     4    13     9     4     0  0.00     0     0     0     0     0 .0034   0.0     0     0   150   350  0.12  0.75   3.9  99.9  1.00  0.00  0.00  0.00  0.00  0.00  0.00   0.1  0.00  0.00  0.60  0.16
 2022 332    88     5  16.1  -6.0 10.78  0.78  0.03  0.59   1.2  0.04 0.004  0.05    44    19     5    19    12     7     0  0.00     0     0     1     0 0.128 .0066   5.0     0     0   150   347  0.14  0.68   4.2  56.3  0.28  1.00  0.72  0.79  0.00  0.00  0.00   0.1  0.00  0.00  0.60  0.16
 2022 333    89     6  18.1  -6.0 11.21  1.21  0.05  0.38   1.0  0.05 0.005  0.06    44    13     7    24    16     9     0  0.00     0     0     1     0 0.306 .0113   4.3     0     0   150   347  0.17  0.68   5.7  53.4  0.26  1.00  0.74  0.80  0.30  0.30  0.30   0.2  0.00  0.00  0.60  0.16
 2022 334    90     7  18.5  -6.0 11.66  1.66  0.05  0.34   1.2  0.06 0.006  0.07    45    10     8    27    17    10     0  0.00     0     0     1     0 0.537 .0173   4.4     0     0   150   346  0.20  0.69   7.2  53.4  0.30  1.00  0.70  0.77  0.46  0.46  0.46   0.4  0.00  0.00  0.60  0.16
 2022 335    91     8  19.2  -6.0 12.06  2.06  0.05  0.38   1.5  0.06 0.006  0.07    46     9     9    29    18    10     0  0.00     0     0     1     0 0.795 .0250   4.7     0     0   150   345  0.23  0.69   8.9  57.3  0.34  1.00  0.66  0.74  0.48  0.48  0.48   0.9  0.00  0.00  0.60  0.17
 2022 336    92     9  23.0  -6.0 12.33  2.33  0.05  0.40   1.6  0.06 0.006  0.07    47     9     9    30    19    11     0  0.00     0     0     1     0 1.065 .0349   5.0     0     0   150   344  0.26  0.69  10.9  65.4  0.33  1.00  0.67  0.75  0.43  0.43  0.43   1.3  0.00  0.20  0.60  0.17
 2022 337    93    10  23.0  -6.0 12.61  2.61  0.06  0.46   1.7  0.07 0.007  0.07    48     9     9    31    19    11     0  0.00     0     0     2     0 1.343 .0452   5.3     0     0   150   343  0.29  0.69  12.9  83.0  0.35  1.00  0.65  0.73  0.38  0.38  0.38   1.4  0.00  0.20  0.60  0.17
 2022 338    94    11  22.0  -6.0 12.87  2.87  0.06  0.50   1.8  0.07 0.007  0.08    50     9    10    32    20    12     0  0.00     0     0     2     0 1.630 .0554   5.6     0     0   150   342  0.33  0.70  14.8  98.6  0.36  1.00  0.64  0.72  0.35  0.35  0.35   1.5  0.00  0.13  0.60  0.17
 2022 339    95    12  22.2  -6.0 13.14  3.14  0.06  1.31   2.0  0.07 0.007  0.08    51     9    10    33    21    12     0  0.00     0     0     2     0 1.630 .0661   4.9     0     0   205   341  0.36  0.73  17.0  99.9  0.89  0.22  0.11  0.31  0.31  0.31  0.31   1.5  0.00  0.15  0.60  0.17
 2022 340    96    13  19.7  -6.0 13.38  3.38  0.06  1.54   1.8  0.08 0.008  0.08    53     9    10    34    22    12     0  0.00     0     0     1     0 1.630 .0759   4.3     0     0   256   340  0.38  0.73  20.2  99.9  1.26  0.00  0.00  0.03  0.28  0.28  0.28   1.5  0.00  0.00  0.60  0.17
 2022 341    97    14  20.0  -6.0 13.62  3.62  0.07  1.28   2.6  0.08 0.008  0.09    55     9    11    36    24    13     0  0.00     0     0     1     0 1.630 .0860   3.7     0     0   299   339  0.40  0.74  20.7  99.9  0.80  0.40  0.20  0.38  0.25  0.25  0.25   1.4  0.00  0.00  0.60  0.17
 2022 342    98    15  20.8  -6.0 13.86  3.86  0.07  0.60   2.7  0.08 0.008  0.09    57     9    11    38    24    13     0  0.00     0     0     2     0 1.975 .0970   4.2     0     0   299   337  0.42  0.70  21.4  99.9  0.36  1.00  0.64  0.72  0.22  0.22  0.22   1.4  0.00  0.05  0.60  0.17
 2022 343    99    16  18.0  -6.0 14.08  4.08  0.07  0.60   3.1  0.09 0.009  0.09    60     9    12    40    25    14     0  0.00     0     0     2     0 2.332 0.107   4.5     0     0   299   336  0.44  0.70  22.5  99.9  0.35  1.00  0.65  0.73  0.19  0.19  0.19   1.6  0.00  0.00  0.60  0.17
 2022 344   100    17  17.0  -6.0 14.29  4.29  0.07  0.61   3.4  0.08 0.008  0.09    60     9    12    39    24    16     0  0.00     0     0     4     0 4.852 0.117  10.6     0     0   299   334  0.45  0.70  23.5  99.9  0.35  1.00  0.65  0.73  0.17  0.17  0.17   1.5  0.00  0.00  0.60  0.17
 2022 345   101    18  16.2  -6.0 14.48  4.48  0.06  0.78   3.9  0.07 0.008  0.08    61     9    13    40    23    17     0  0.00     0     0     6     0 7.248 0.127  15.6     0     0   299   332  0.47  0.71  24.5  99.9  0.43  1.00  0.57  0.67  0.15  0.15  0.15   2.0  0.00  0.00  0.60  0.17
 2022 346   102    19  16.1  -6.0 14.67  4.67  0.06  0.92   4.4  0.07 0.008  0.08    63     9    14    41    22    19     0  0.00     0     0     8     0 9.631 0.137  19.7     0     0   299   330  0.48  0.72  25.4  99.9  0.49  1.00  0.51  0.62  0.13  0.13  0.13   2.0  0.00  0.00  0.60  0.17
 2022 347   103    20  15.1  -6.0 21.08  4.85  0.06  1.17   5.1  0.08 0.008  0.09    66     9    14    43    24    20     0  0.00     0     0     8     0 10.52 0.147  18.8     0     0   312   328  0.50  0.73  73.1  99.9  0.61  0.78  0.39  0.53  0.10  0.10  0.10   2.0  0.00  0.00  0.60  0.17
 2022 348   104    21  15.2  -6.0 21.41  5.04  0.08  1.95   9.8  0.09 0.010  0.10    75     9    16    51    29    22     0  0.00     0     0     7     0 10.52 0.158  14.7     0     0   362   325  0.51  0.76  56.1  99.9  2.21  0.00  0.00  0.00  0.08  0.08  0.08   1.8  0.00  0.00  0.60  0.17
 2022 349   105    22  14.6  -6.0 21.74  5.21  0.09  2.00  11.9  0.11 0.012  0.12    85     9    18    59    34    25     0  0.00     0     0     8     0 11.22 0.170  12.8     0     0   411   321  0.53  0.76  40.8  99.9  2.15  0.00  0.00  0.00  0.06  0.06  0.06   1.3  0.00  0.00  0.59  0.17
 2022 350   106    23  12.5  -6.0 22.03  5.36  0.10  2.03   7.9  0.12 0.013  0.13    92     9    19    65    38    27     0  0.00     0     0     8     0 11.82 0.181  11.6     0     0   454   319  0.54  0.76  34.5  99.9  2.45  0.00  0.00  0.00  0.05  0.05  0.05   1.6  0.00  0.00  0.49  0.17
 2022 351   107    24  14.9  -6.0 22.54  5.54  0.11  2.05  14.8  0.14 0.016  0.16   105     9    21    75    45    30     0  0.00     0     0     8     0 12.55 0.195  10.2     0     0   532   317  0.55  0.77  32.6  99.9  1.30  0.00  0.00  0.00  0.04  0.04  0.04   0.7  0.00  0.00  0.49  0.17
 2022 352   108    25  15.5  -6.0 23.06  5.73  0.13  1.96  16.6  0.17 0.018  0.18   119     9    23    87    53    35     0  0.00     0     0     8     0 13.31 0.211   9.1     0     0   609   315  0.57  0.76  32.9  99.9  1.15  0.00  0.00  0.12  0.08  0.08  0.08   0.7  0.00  0.00  0.49  0.17
 2022 353   109    26  14.8  -6.0 23.53  5.90  0.15  1.89  18.6  0.19 0.021  0.21   135     9    26   101    61    39     0  0.00     0     0     8     0 14.03 0.228   8.1     0     0   680   313  0.58  0.76  33.4  95.2  0.99  0.02  0.01  0.24  0.11  0.11  0.11   0.7  0.00  0.00  0.48  0.17
 2022 354   110    27  16.6  -6.0 24.06  6.10  0.17  1.84  19.0  0.22 0.025  0.24   151     9    28   115    71    44     0  0.00     0     0     8     0 14.58 0.249   7.1     0     0   758   312  0.60  0.76  34.0  89.7  0.99  0.03  0.01  0.24  0.12  0.12  0.12   0.8  0.00  0.00  0.48  0.17
 2022 355   111    28  15.2  -6.0 24.45  6.29  0.19  1.60  20.8  0.25 0.028  0.28   170     9    31   130    81    49     0  0.00     0     0     8     0 15.07 0.271   6.3     0     0   817   310  0.61  0.76  34.5  73.7  0.86  0.28  0.14  0.34  0.13  0.13  0.13   0.8  0.00  0.00  0.48  0.17
 2022 356   112    29  15.3  -6.0 24.79  6.47  0.21  1.51  22.4  0.28 0.032  0.31   189     9    35   146    92    55     0  0.00     0     0     8     0 15.57 0.295   5.6     0     0   869   308  0.63  0.76  35.0  65.6  0.81  0.38  0.19  0.38  0.13  0.13  0.13   0.8  0.00  0.00  0.48  0.17
 2022 357   113    30  15.9  -6.0 25.12  6.66  0.24  1.47  23.9  0.32 0.036  0.35   210     9    38   164   103    61     0  0.00     0     0     8     0 16.09 0.323   5.1     0     0   918   306  0.64  0.75  35.5  59.3  0.79  0.43  0.21  0.39  0.13  0.13  0.13   0.9  0.00  0.00  0.48  0.17
 2022 358   114    31  16.2  -6.0 25.42  6.86  0.26  1.42  25.7  0.35 0.040  0.39   233     9    42   182   115    67     0  0.00     0     0     8     0 16.62 0.354   4.6     0     0   963   305  0.65  0.75  35.9  53.8  0.76  0.49  0.24  0.42  0.12  0.12  0.12   0.9  0.00  0.00  0.48  0.17
 2022 359   115    32  17.8  -6.0 25.66  7.07  0.28  1.31  26.3  0.39 0.045  0.43   256     9    46   201   128    74     0  0.00     0     0     9     0 17.20 0.391   4.3     0     0  1000   304  0.67  0.75  36.3  47.6  0.69  0.62  0.31  0.47  0.11  0.11  0.11   1.0  0.00  0.00  0.56  0.17
 2022 360   116    33  17.0  -6.0 25.86  7.27  0.30  1.28  28.2  0.43 0.049  0.47   280     9    50   222   141    81     0  0.00     0     0     9     0 18.00 0.430   4.1     0     0  1030   302  0.68  0.74  36.8  44.4  0.66  0.67  0.34  0.49  0.10  0.10  0.10   1.0  0.00  0.00  0.56  0.17
 2022 361   117    34  17.5  -6.0 26.03  7.48  0.33  1.24  29.3  0.46 0.054  0.52   306     9    55   243   154    88     0  0.00     0     0    10     0 18.83 0.474   4.0     0     0  1055   301  0.70  0.74  37.2  41.6  0.64  0.73  0.36  0.51  0.08  0.08  0.08   1.0  0.00  0.00  0.60  0.17
 2022 362   118    35  16.6  -6.0 26.59  7.68  0.35  1.99  31.4  0.51 0.059  0.57   334     9    59   266   170    97     0  0.00     0     0    10     0 19.62 0.520   3.8     0     0  1139   299  0.71  0.77  37.6  65.1  1.01  0.00  0.00  0.22  0.07  0.07  0.07   1.0  0.00  0.00  0.60  0.17
 2022 363   119    36  17.2  -6.0 27.18  7.89  0.36  2.01  14.8  0.53 0.062  0.59   346     9    61   277   177   100     0  0.00     0     0    10     0 20.44 0.570   3.7     0     0  1227   299  0.72  0.77  38.5  99.9  2.24  0.00  0.00  0.00  0.05  0.05  0.05   2.0  0.00  0.00  0.60  0.17
 2022 364   120    37  18.6  -6.0 27.30  8.11  0.38  1.20  31.7  0.56 0.066  0.62   371     9    66   297   188   109     0  0.00     0     0    13     0 23.79 0.627   4.4     0     0  1245   297  0.74  0.74  39.0  38.6  0.59  0.82  0.41  0.54  0.05  0.05  0.05   1.1  0.00  0.00  0.60  0.17
 2022 365   121    38  17.8  -6.0 27.38  8.32  0.39  1.14  33.0  0.58 0.069  0.65   396     9    71   316   197   119     0  0.00     0     0    17     0 28.73 0.685   5.5     0     0  1256   296  0.75  0.74  39.5  35.9  0.56  0.89  0.44  0.57  0.04  0.04  0.04   1.4  0.00  0.00  0.60  0.17
 2023   1   122    39  16.6  -6.0 27.56  8.52  0.41  1.36  35.6  0.63 0.075  0.70   425     9    76   341   213   128     0  0.00     0     0    19     0 30.85 0.745   5.5     0     0  1285   294  0.77  0.75  39.8  41.8  0.66  0.69  0.34  0.50  0.03  0.03  0.03   1.5  0.00  0.00  0.60  0.17
 2023   2   123    40  15.1  -6.0 27.89  8.71  0.44  1.66  37.8  0.68 0.081  0.76   459     9    82   368   231   138     0  0.00     0     0    19     0 31.86 0.802   5.0     0     0  1333   293  0.78  0.76  40.1  50.1  0.80  0.40  0.20  0.39  0.02  0.02  0.02   1.2  0.00  0.00  0.60  0.17
 2023   3   124    41  13.8  -6.0 27.96  8.87  0.46  1.19  39.3  0.72 0.087  0.80   490     9    88   394   246   148     0  0.00     0     0    21     0 35.15 0.858   5.3     0     0  1344   292  0.79  0.74  81.2  71.0  0.57  0.86  0.43  0.56  0.02  0.02  0.02   1.1  0.00  0.00  0.55  0.17
 2023   4   125    42  16.3  -6.0 28.54  9.07  0.50  2.10  75.0  0.83 0.100  0.93   559     9    97   453   285   168     0  0.00     0     0    21     0 35.15 0.930   4.6     0     0  1431   290  0.80  0.78  64.4  46.7  1.87  0.00  0.00  0.00  0.01  0.01  0.01   1.3  0.00  0.00  0.55  0.17
 2023   5   126    43  17.6  -6.0 29.17  9.28  0.54  2.12  85.9  0.92 0.113  1.03   631     9   108   514   319   194     0  0.00     0     0    27     0 41.92 1.016   5.3     0     0  1525   288  0.82  0.78  55.5  35.0  1.81  0.00  0.00  0.00  0.01  0.01  0.01   1.2  0.00  0.00  0.58  0.17
 2023   6   127    44  18.3  -6.0 29.83  9.50  0.58  2.13  91.0  1.02 0.126  1.14   707     9   120   578   357   221     0  0.00     0     0    34     0 48.99 1.115   5.9     0     0  1624   285  0.83  0.79  51.9  31.2  1.50  0.00  0.00  0.00  0.00  0.00  0.00   1.2  0.00  0.00  0.58  0.17
 2023   7   128    45  17.7  -6.0 30.00  9.71  0.62  2.13  94.3  1.12 0.141  1.26   786     9   132   645   396   249     0  0.00     0     0    40     0 55.88 1.221   6.2     0     0  1719   284  0.85  0.79  50.6  30.0  1.42  0.00  0.00  0.00  0.00  0.00  0.00   1.1  0.00  0.00  0.58  0.17
 2023   8   129    46  17.3  -6.0 30.00  9.92  0.65  2.13 100.2  1.24 0.156  1.40   871     9   145   717   439   278     0  0.00     0     0    45     0 62.64 1.335   6.3     0     0  1813   282  0.86  0.79  49.8  28.0  1.31  0.00  0.00  0.00  0.00  0.00  0.00   1.1  0.00  0.00  0.58  0.17
 2023   9   130    47  16.6  -6.0 30.00 10.12  0.69  2.13 111.0  1.39 0.176  1.57   971     9   159   803   496   308     0  0.00     0     0    45     0 64.13 1.456   5.6     0     0  1902   281  0.88  0.79  48.8  25.0  1.10  0.00  0.00  0.15  0.00  0.00  0.00   1.0  0.00  0.00  0.58  0.17
 2023  10   131    48  17.2  -6.0 30.00 10.32  0.72  2.08 111.8  1.51 0.193  1.70  1063     9   173   882   541   341     0  0.00     0     0    53     0 73.62 1.592   6.0     0     0  1991   279  0.89  0.79  47.8  23.4  0.98  0.04  0.02  0.25  0.00  0.00  0.00   0.8  0.00  0.00  0.58  0.17
 2023  11   132    49  17.9  -6.0 30.00 10.54  0.75  1.74 102.5  1.61 0.207  1.82  1146     9   187   951   580   371     0  0.00     0     0    61     0 83.54 1.747   6.4     0     0  2055   277  0.91  0.77  46.9  20.6  0.83  0.34  0.17  0.36  0.02  0.02  0.02   1.1  0.00  0.00  0.60  0.17
 2023  12   133    50  18.4  -6.0 30.00 10.76  0.77  1.64 100.3  1.71 0.221  1.93  1227     9   201  1018   619   399     0  0.00     0     0    68     0 93.79 1.919   6.6     0     0  2111   276  0.92  0.77  46.0  19.5  0.78  0.44  0.22  0.40  0.01  0.01  0.01   1.2  0.00  0.00  0.60  0.17
 2023  13   134    51  16.6  -6.0 30.00 10.96  0.78  1.57  97.2  1.81 0.235  2.04  1305     9   214  1083   657   426     0  0.00     0     0    73     0 103.1 2.086   6.7     0     0  2154   275  0.93  0.76  45.2  19.2  0.74  0.52  0.26  0.43  0.01  0.01  0.01   1.2  0.00  0.00  0.60  0.16
 2023  14   135    52  17.6  -6.0 30.00 11.17  0.80  1.40  88.0  1.90 0.248  2.15  1377     9   227  1142   694   448     0  0.00     0     0    76     0 110.5 2.275   6.6     0     0  2184   274  0.95  0.76  44.7  18.4  0.66  0.68  0.34  0.49  0.00  0.00  0.00   1.3  0.00  0.00  0.60  0.16
 2023  15   136    53  16.9  -6.0 30.00 11.37  0.81  1.92  84.8  1.98 0.260  2.24  1445     9   238  1199   727   472     0  0.00     0     0    80     0 120.2 2.466   6.7     0     0  2258   273  0.96  0.78  44.2  26.9  0.90  0.19  0.10  0.31  0.00  0.00  0.00   1.3  0.00  0.00  0.60  0.16
 2023  16   137    54  17.0  -6.0 30.00 11.57  0.82  1.20  78.0  2.01 0.266  2.28  1495     9   249  1237   741   496     0  0.00     0     0    94     0 140.2 2.667   7.6     0     0  2269   272  0.98  0.75  43.9  18.0  0.56  0.88  0.44  0.57  0.00  0.00  0.00   1.6  0.00  0.00  0.60  0.16
 2023  17   138    55  14.1  -6.0 30.00 11.74  0.83  2.13  41.9  2.05 0.272  2.32  1525     9   254  1262   758   505     0  0.00     0     0    94     0 148.3 2.843   7.5     0     0  2345   271  0.99  0.79  44.3  64.5  1.86  0.00  0.00  0.00  0.00  0.00  0.00   2.0  0.00  0.00  0.57  0.16
 2023  18   139    56  13.8  -6.0 30.00 11.91  0.83  1.18  75.1  2.09 0.278  2.36  1574     9   265  1300   773   527     0  0.00     0     0   106     0 167.0 3.018   8.1     0     0  2353   270  1.00  0.75  43.9  19.6  0.55  0.89  0.45  0.57  0.00  0.00  0.00   1.5  0.00  0.00  0.52  0.16
 2023  19   140    57  14.2  -6.0 30.00 12.08  0.84  1.10  69.6  2.15 0.287  2.43  1625     9   276  1341   798   543     0  0.00     0     0   108     0 177.8 3.207   8.1     0     0  2355   269  1.01  0.75  43.6  19.2  0.51  0.97  0.49  0.60  0.00  0.00  0.00   2.0  0.00  0.00  0.49  0.16
 2023  20   141    58  13.8  -6.0 30.00 12.25  0.84  0.92  66.3  2.15 0.289  2.44  1660     9   286  1366   802   564     0  0.00     0     0   123     0 201.8 3.396   9.0     0     0  2355   268  1.02  0.74  98.9  38.6  0.43  1.00  0.57  0.67  0.00  0.00  0.00   1.9  0.00  0.00  0.45  0.16
 2023  21   142    59  14.1  -6.0 30.00 12.41  0.86  2.13 153.7  2.31 0.313  2.62  1788     9   304  1475   869   607     0  0.00     0     0   129     0 214.9 3.598   8.8     0     0  2431   266  1.03  0.80  82.1  31.7  3.25  0.00  0.00  0.00  0.00  0.00  0.00   2.0  0.00  0.00  0.41  0.16
 2023  22   143    60  14.1  -6.0 30.00 12.58  0.88  2.13 161.1  2.48 0.339  2.82  1923     9   324  1591   939   652     0  0.00     0     0   135     0 228.0 3.812   8.5     0     0  2507   264  1.05  0.80  72.9  26.7  3.28  0.00  0.00  0.00  0.00  0.00  0.00   1.7  0.00  0.00  0.38  0.16
 2023  23   144    61  12.6  -6.0 30.00 12.73  0.89  2.13 139.4  2.64 0.363  3.01  2043     9   340  1694  1006   688     0  0.00     0     0   134     0 236.0 4.015   7.9     0     0  2507   263  1.06  0.80  70.3  31.1  3.94  0.00  0.00  0.00  0.00  0.00  0.00   2.0  0.00  0.00  0.29  0.16
 2023  24   145    62  13.1  -6.0 30.00 12.89  0.91  2.13 168.6  2.87 0.396  3.27  2198     9   361  1829  1099   730     0  0.00     0     0   127     0 236.0 4.238   6.9     0     0  2507   261  1.07  0.80  67.9  24.6  3.04  0.00  0.00  0.00  0.00  0.00  0.00   1.6  0.00  0.00  0.21  0.16
 2023  25   146    63  14.5  -6.0 30.00 13.06  0.93  2.13 173.1  3.10 0.430  3.53  2357     9   381  1967  1194   773     0  0.00     0     0   120     0 236.0 4.499   6.1     0     0  2507   260  1.08  0.80  65.4  22.1  2.57  0.00  0.00  0.00  0.00  0.00  0.00   1.4  0.00  0.00  0.20  0.16
 2023  26   147    64  15.7  -6.0 30.00 13.25  0.94  2.13 162.2  3.30 0.460  3.76  2502     9   400  2093  1277   816     0  0.00     0     0   118     0 239.7 4.797   5.7     0     0  2507   258  1.09  0.80  63.2  22.3  2.44  0.00  0.00  0.00  0.00  0.00  0.00   1.5  0.00  0.00  0.00  0.00
 2023  27   148    65  12.1  -6.0 30.00 13.40  0.95  2.13 131.1  3.46 0.484  3.94  2619     9   415  2195  1346   849     0  0.00     0     0   116     0 243.4 5.040   5.3     0     0  2507   257  1.10  0.80  61.7  28.6  2.75  0.00  0.00  0.00  0.00  0.00  0.00   2.0  0.00  0.00  0.00  0.00
 2023  28   149    66  15.6  -6.0 30.00 13.58  0.95  2.13 147.3  3.63 0.511  4.14  2750     9   432  2309  1419   890     0  0.00     0     0   116     0 248.0 5.364   5.0     0     0  2507   256  1.11  0.81  59.8  22.8  1.99  0.00  0.00  0.00  0.00  0.00  0.00   1.9  0.00  0.00  0.00  0.00
 2023  29   150    67  14.4  -6.0 30.00 13.76  0.96  2.13 179.9  3.83 0.543  4.37  2911     9   452  2450  1507   943     0  0.00     0     0   118     0 252.4 5.677   4.8     0     0  2507   254  1.13  0.81  57.4  18.3  1.43  0.00  0.00  0.00  0.00  0.00  0.00   1.6  0.00  0.00  0.00  0.00
 2023  30   151    68  14.6  -6.0 30.39 13.93  0.97  2.13 161.8  4.01 0.573  4.58  3056     9   470  2577  1586   991     0  0.00     0     0   119     0 256.8 6.006   4.6     0     0  2507   253  1.14  0.81  55.4  19.5  1.32  0.00  0.00  0.00  0.00  0.00  0.00   1.8  0.00  0.00  0.00  0.00
 2023  31   152    69  14.5  -6.0 31.08 14.11  0.97  2.13 166.8  4.19 0.603  4.79  3206     9   489  2709  1659  1049     0  0.00     0     0   122     0 261.2 6.347   4.5     0     0  2507   252  1.15  0.81  53.2  18.2  1.10  0.00  0.00  0.15  0.00  0.00  0.00   1.7  0.00  0.00  0.00  0.00
 2023  32   153    70  13.4  -6.0 31.71 14.27  0.97  2.13 125.2  4.32 0.626  4.95  3317     9   502  2807  1712  1094     0  0.00     0     0   122     0 265.2 6.673   4.4     0     0  2507   252  1.16  0.82  51.8  24.5  1.31  0.00  0.00  0.00  0.00  0.00  0.00   2.0  0.00  0.00  0.00  0.00
 2023  33   154    71  15.9  -6.0 32.47 14.46  0.98  1.72 138.8  4.46 0.650  5.11  3440     9   518  2913  1769  1144     0  0.00     0     0   124     0 270.0 7.071   4.3     0     0  2507   252  1.17  0.80  50.2  16.2  0.81  0.39  0.19  0.38  0.00  0.00  0.00   2.0  0.00  0.00  0.00  0.00
 2023  34   155    72  16.9  -6.0 33.27 14.66  0.98  1.47 118.3  4.57 0.671  5.24  3543     9   533  3001  1815  1186     0  0.00     0     0   126     0 275.2 7.508   4.2     0     0  2507   252  1.19  0.79  95.6  29.8  0.69  0.62  0.31  0.47  0.00  0.00  0.00   2.0  0.00  0.00  0.00  0.00
 2023  35   156    73  16.9  -6.0 34.07 14.86  0.98  2.13 178.4  4.74 0.703  5.44  3703     9   551  3143  1890  1253     0  0.00     0     0   133     0 280.4 7.958   4.2     0     0  2507   251  1.20  0.82  88.2  26.4  3.91  0.00  0.00  0.00  0.00  0.00  0.00   2.0  0.00  0.00  0.00  0.00
 2023  36   157    74  18.1  -6.0 34.94 15.08  0.98  2.13 178.9  4.90 0.735  5.64  3863     9   569  3286  1964  1322     0  0.00     0     0   141     0 285.9 8.458   4.3     0     0  2507   250  1.22  0.83  83.2  24.2  4.72  0.00  0.00  0.00  0.00  0.00  0.00   2.0  0.00  0.00  0.00  0.00
 2023  37   158    75  16.7  -6.0 35.73 15.28  0.99  2.13 172.0  5.06 0.765  5.82  4018     9   586  3423  2034  1390     0  0.00     0     0   148     0 291.1 8.933   4.3     0     0  2507   249  1.22  0.83  80.1  25.2  5.12  0.00  0.00  0.00  0.00  0.00  0.00   2.0  0.00  0.00  0.00  0.00
 2023  38   159    76  16.2  -6.0 36.50 15.47  0.99  2.13 187.0  5.22 0.799  6.02  4187     9   604  3574  2109  1466     0  0.00     0     0   156     0 296.1 9.408   4.4     0     0  2507   247  1.22  0.83  76.6  22.5  4.57  0.00  0.00  0.00  0.00  0.00  0.00   2.0  0.00  0.00  0.00  0.00
 2023  39   160    77  18.1  -6.0 37.37 15.69  0.99  2.13 192.6  5.38 0.834  6.21  4361     9   623  3730  2185  1545     0  0.00     0     0   166     0 301.7 9.956   4.5     0     0  2507   246  1.22  0.84  72.8  19.7  3.68  0.00  0.00  0.00  0.00  0.00  0.00   2.0  0.00  0.00  0.00  0.00
 2023  40   161    78  15.1  -6.0 38.09 15.87  0.99  2.13 195.0  5.51 0.869  6.38  4538     9   641  3889  2261  1628     0  0.00     0     0   176     0 306.4 10.43   4.5     0     0  2442   244  1.22  0.84  69.2  19.5  3.01  0.00  0.00  0.00  0.00  0.00  0.00   2.0  0.00  0.00  0.00  0.00
 2023  41   162    79  17.1  -6.0 38.90 16.08  0.99  2.13 172.0  5.62 0.900  6.52  4694     9   656  4029  2326  1703     0  0.00     0     0   184     0 311.7 10.98   4.6     0     0  2371   242  1.22  0.84  65.8  20.2  2.63  0.00  0.00  0.00  0.00  0.00  0.00   2.0  0.00  0.00  0.00  0.00
 2023  42   163    80  14.0  -6.0 39.57 16.25  0.99  2.13  62.3  5.65 0.913  6.56  4747     9   662  4077  2344  1733     0  0.00     0     0   177     0 316.2 11.44   4.4     0     0  2314   241  1.22  0.85  64.7  59.6  6.49  0.00  0.00  0.00  0.00  0.00  0.00   2.0  0.00  0.00  0.00  0.00
 2023  43   164    81  15.7  -6.0 40.33 16.43  0.99  2.13 175.3  5.75 0.945  6.69  4906     9   677  4221  2409  1812     0  0.00     0     0   187     0 321.1 11.95   4.4     0     0  2253   239  1.22  0.85  61.5  19.3  2.08  0.00  0.00  0.00  0.00  0.00  0.00   2.0  0.00  0.00  0.00  0.00
 2023  44   165    82  13.9  -6.0 41.03 16.43  0.99  2.66 148.0  5.68 0.962  6.64  5045     9   690  4347  2443  1892     0  0.00     0     0   236    12 321.1 12.43   5.4     0     0  2200   233  1.22  0.85  59.4  29.1  2.69  0.00  0.00  0.00  0.00  0.00  0.00   2.0  0.00  0.00  0.00  0.00
 2023  45   166    83  13.7  -6.0 41.71 16.43  0.99  2.66 220.6  5.62 0.990  6.61  5252     9   709  4535  2461  2052     0  0.00     0     0   304    23 321.1 12.90   6.7     0     0  2149   228  1.22  0.86  56.3  18.3  1.59  0.00  0.00  0.00  0.00  0.00  0.00   2.0  0.00  0.00  0.00  0.00
 2023  46   167    84  14.2  -6.0 42.42 16.43  0.99  2.66 227.1  5.55 1.019  6.57  5466     9   727  4730  2448  2248     0  0.00     0     0   375    35 321.1 13.40   8.0     0     0  2099   227  1.22  0.86  56.7  17.9  1.31  0.00  0.00  0.00  0.00  0.00  0.00   2.0  0.00  0.00  0.00  0.00
 2023  47   168    85  14.1  -6.0 43.13 16.43  0.99  2.66 250.7  5.48 1.051  6.53  5703     9   748  4946  2435  2464     0  0.00     0     0   451    47 321.1 13.91   9.2     0     0  2050   225  1.22  0.86  53.2  15.2  1.60  0.00  0.00  0.00  0.00  0.00  0.00   2.0  0.00  0.00  0.00  0.00
 2023  48   169    86  12.8  -6.0 43.77 16.43  0.99  2.66 180.7  5.42 1.073  6.50  5873     9   762  5103  2424  2621     0  0.00     0     0   509    57 321.1 14.39  10.1     0     0  2007   224  1.22  0.87  97.4  39.3  1.62  0.00  0.00  0.00  0.00  0.00  0.00   2.0  0.00  0.00  0.00  0.00
 2023  49   170    87  17.4  -6.0 44.64 16.43  0.99  2.66 160.8  5.34 1.091  6.43  6025     9   774  5243  2407  2764     0  0.00     0     0   566    72 321.1 15.06  10.9     0     0  1950   222  1.21  0.87 103.7  43.4  7.91  0.00  0.00  0.00  0.00  0.00  0.00   2.0  0.00  0.00  0.00  0.00
 2023  50   171    88  18.8  -6.0 45.58 16.43  0.99  2.66 140.9  5.25 1.105  6.36  6158     9   784  5366  2389  2888     0  0.00     0     0   619    88 321.1 15.78  11.7     0     0  1891   220  1.21  0.87  90.5  41.9 10.25  0.00  0.00  0.00  0.00  0.00  0.00   2.0  0.00  0.00  0.00  0.00
 2023  51   172    89  18.3  -6.0 46.49 16.43  0.99  2.66 173.7  5.17 1.124  6.30  6322     9   796  5518  2372  3042     0  0.00     0     0   680   104 321.1 16.50  12.6     0     0  1835   218  1.21  0.88  84.3  31.9  8.72  0.00  0.00  0.00  0.00  0.00  0.00   2.0  0.00  0.00  0.00  0.00
 2023  52   173    90  16.3  -6.0 47.31 16.43  0.99  2.66 160.4  5.10 1.143  6.24  6475     9   806  5660  2357  3185     0  0.00     0     0   737   118 321.1 17.15  13.3     0     0  1787   216  1.21  0.88  82.3  35.6 10.11  0.00  0.00  0.00  0.00  0.00  0.00   2.0  0.00  0.00  0.00  0.00
 2023  53   174    91  15.3  -6.0 48.08 16.43  0.99  2.66 264.1  5.03 1.178  6.21  6726     9   824  5894  2342  3420     0  0.00     0     0   820   131 321.1 17.77  14.2     0     0  1744   215  1.21  0.89  78.5  21.0  6.35  0.00  0.00  0.00  0.00  0.00  0.00   2.0  0.00  0.00  0.00  0.00
 2023  54   175    92  16.1  -6.0 48.88 16.43  0.99  2.66 265.2  4.96 1.212  6.17  6979     9   840  6130  2326  3551     0  0.00   107   107   905   146 321.1 18.43  15.1     0     0  1700   213  1.21  0.89  74.5  19.2  5.76  0.00  0.00  0.00  0.00  0.00  0.00   2.0  0.00  0.00  0.00  0.00
 2023  55   176    93  13.1  -6.0 49.54 16.43  0.98  2.66 170.5  4.90 1.234  6.13  7142     9   851  6283  2314  3609     0  0.00   202   177   962   157 321.1 18.98  15.7     0     0  1665   212  1.21  0.89  72.1  30.9  7.64  0.00  0.00  0.00  0.00  0.00  0.00   2.0  0.00  0.00  0.00  0.00
 2023  56   177    94  15.6  -6.0 51.00 16.43  0.98  2.66 167.8  4.83 1.254  6.08  7302     9   860  6433  2298  3675     0  0.00   290   245  1021   171 321.1 19.65  16.3     0     0  1625   210  1.21  0.90  69.6  28.7  6.43  0.00  0.00  0.00  0.00  0.00  0.00   2.0  0.00  0.00  0.00  0.00
 2023  57   178    95  17.0  -6.0 53.61 16.43  0.98  2.66 272.4  4.77 1.285  6.06  7563     9   875  6680  2288  3789     0  0.00   422   357  1105   181 321.1 20.38  17.0     0     0  1583   209  1.21  0.90  65.5  16.3  3.31  0.00  0.00  0.00  0.00  0.00  0.00   2.0  0.00  0.00  0.00  0.00
 2023  58   179    96  16.0  -6.0 56.07 16.43  0.98  2.66 272.2  4.72 1.318  6.04  7826     9   888  6929  2280  3890     0  0.00   570   471  1189   190 321.1 21.08  17.6     0     0  1544   207  1.21  0.92  61.4  15.5  2.58  0.00  0.00  0.00  0.00  0.00  0.00   2.0  0.00  0.00  0.00  0.00
 2023  59   180    97  16.1  -6.0 58.54 16.43  0.98  2.66 240.6  4.67 1.346  6.01  8058     9   898  7152  2271  3975     0  0.00   708   572  1265   199 321.1 21.79  18.2     0     0  1507   206  1.21  0.93  57.7  16.3  2.25  0.00  0.00  0.00  0.00  0.00  0.00   2.0  0.00  0.00  0.00  0.00
 2023  60   181    98  12.6  -6.0 61.23 16.43  0.98  2.66  82.3  4.63 1.352  5.98  8138     9   900  7229  2265  3984     0  0.00   774   608  1296   206 321.1 22.36  18.5     0     0  1479   204  1.21  0.94  56.6  51.6  5.77  0.00  0.00  0.00  0.00  0.00  0.00   2.0  0.00  0.00  0.00  0.00
 2023  61   182    99  14.6  -6.0 66.86 16.43  0.98  2.66 282.0  4.58 1.389  5.97  8413     9   909  7496  2256  4114     0  0.00   912   729  1384   215 321.1 23.02  19.0     0     0  1447   203  1.21  0.95  52.6  13.4  1.50  0.00  0.00  0.00  0.00  0.00  0.00   2.0  0.00  0.00  0.00  0.00
 2023  62   183   100  14.9  -6.0 70.40 16.43  0.98  2.66 288.3  4.53 1.428  5.96  8696     9   915  7772  2247  4221     0  0.00  1080   855  1476   224 321.1 23.70  19.6     0     0  1416   202  1.21  0.96  48.3  11.8  1.12  0.00  0.00  0.14  0.00  0.00  0.00   2.0  0.00  0.00  0.00  0.00
 2023  63   184   101  14.5  -6.0 71.25 16.43  0.98  2.27 246.4  4.49 1.460  5.95  8937     9   922  8007  2239  4300     5  0.00  1231   967  1549   232 321.1 24.36  19.9 14418 .0000  1386   200  1.21  0.95  44.7  10.8  0.85  0.30  0.15  0.34  0.00  0.00  0.00   2.0  0.00  0.00  0.00  0.00
 2023  64   185   102  15.5  -6.0 72.17 16.43  0.98  1.73 190.7  4.44 1.482  5.92  9123     9   928  8187  2229  4345    25  0.00  1346  1069  1593   241 321.1 25.07  20.1 14418 .0002  1356   199  1.21  0.94  41.7   9.7  0.65  0.70  0.35  0.50  0.00  0.00  0.00   2.0  0.00  0.00  0.00  0.00
 2023  65   186   103  16.9  -6.0 73.17 16.43  0.97  1.46 155.3  4.30 1.471  5.77  9274     9   932  8333  2174  4399    64  0.01  1417  1107  1739   280 321.1 25.86  21.8 14418 .0004  1324   198  1.21  0.94  39.2   9.3  0.55  0.90  0.45  0.58  0.00  0.00  0.00   2.0  0.00  0.00  0.00  0.00
 2023  66   187   104  16.9  -6.0 74.17 16.43  0.97  1.62 133.5  4.25 1.461  5.71  9405     9   934  8462  2163  4448   120  0.01  1440  1164  1821   290 321.1 26.64  22.6 14418 .0008  1293   196  1.21  0.96  89.5  27.4  0.61  0.78  0.39  0.53  0.00  0.00  0.00   2.0  0.00  0.00  0.00  0.00
 2023  67   188   105  18.4  -6.0 75.26 16.43  0.97  2.66 256.5  4.19 1.450  5.64  9658     9   937  8713  2151  4567   201  0.02  1493  1244  2002   301 321.1 27.50  24.4 14418 .0014  1260   195  1.21  0.98  85.4  21.7  4.39  0.00  0.00  0.00  0.00  0.00  0.00   2.0  0.00  0.00  0.00  0.00
 2023  68   189   106  19.7  -6.0 76.42 16.43  0.97  2.66 279.4  4.13 1.439  5.57  9934     9   939  8987  2138  4681   310  0.03  1545  1354  2179   313 321.1 28.43  26.1 14418 .0022  1226   193  1.21  0.98  80.7  18.3  5.83  0.00  0.00  0.00  0.00  0.00  0.00   2.0  0.00  0.00  0.00  0.00
 2023  69   190   107  19.4  -6.0 77.57 16.43  0.97  2.66 290.6  4.07 1.428  5.50 10222     9   942  9272  2126  4787   442  0.05  1592  1485  2344   324 321.1 29.34  27.6 14418 .0031  1194   192  1.21  0.98  75.9  16.7  5.83  0.00  0.00  0.00  0.00  0.00  0.00   2.0  0.00  0.00  0.00  0.00
 2023  70   191   108  19.6  -6.0 78.73 16.43  0.97  2.66 286.3  4.02 1.417  5.43 10505     9   944  9552  2113  4873   598  0.06  1632  1642  2480   336 321.1 30.26  28.8 14418 .0042  1163   190  1.21  0.98  71.2  15.8  5.14  0.00  0.00  0.00  0.00  0.00  0.00   2.0  0.00  0.00  0.00  0.00
 2023  71   192   109  22.8  -6.0 80.02 16.43  0.97  2.66 284.6  3.95 1.405  5.35 10786     9   946  9831  2097  4921   808  0.08  1655  1851  2563   350 321.1 31.34  29.6 14418 .0056  1129   188  1.21  0.98  66.1  14.0  3.55  0.00  0.00  0.00  0.00  0.00  0.00   2.0  0.00  0.18  0.00  0.00
 2023  72   193   110  22.0  -6.0 80.40 16.43  0.96  2.66 290.4  3.91 1.393  5.31 11073     9   949 10116  2096  4952  1043  0.10  1669  2087  2617   355 321.1 32.38  30.0 14418 .0072  1097   187  1.21  0.98  61.1  12.9  2.52  0.00  0.00  0.00  0.00  0.00  0.00   2.0  0.00  0.13  0.00  0.00
 2023  73   194   111  19.8  -6.0 80.75 16.43  0.96  2.66 297.8  3.88 1.383  5.26 11368     9   952 10408  2095  5005  1255  0.12  1692  2299  2702   360 321.1 33.32  30.7 14418 .0087  1070   185  1.21  0.98  56.1  12.0  1.83  0.00  0.00  0.00  0.00  0.00  0.00   2.0  0.00  0.00  0.00  0.00
 2023  74   195   112  19.5  -6.0 81.08 16.43  0.96  2.66 261.6  3.85 1.373  5.22 11626     9   954 10664  2094  5037  1464  0.14  1705  2507  2754   364 321.1 34.24  31.2 14418 .0102  1045   184  1.21  0.98  51.7  12.7  1.52  0.00  0.00  0.00  0.00  0.00  0.00   2.0  0.00  0.00  0.00  0.00
 2023  75   196   113  20.5  -6.0 81.44 16.43  0.96  2.66 239.6  3.81 1.363  5.18 11863     9   956 10899  2092  5045  1683  0.15  1709  2727  2774   369 321.1 35.22  31.4 14418 .0117  1019   182  1.21  0.98  47.7  12.6  1.25  0.00  0.00  0.04  0.00  0.00  0.00   2.0  0.00  0.03  0.00  0.00
 2023  76   197   114  20.0  -6.0 81.78 16.43  0.96  2.66 102.4  3.78 1.353  5.14 11963     9   956 10999  2091  4962  1898  0.17  1674  2941  2664   373 321.1 36.18  30.5 14418 .0132   995   181  1.21  0.98 101.0  64.2  2.31  0.00  0.00  0.00  0.00  0.00  0.00   2.0  0.00  0.00  0.00  0.00
 2023  77   198   115  19.0  -6.0 82.11 16.43  0.96  2.66 278.6  3.75 1.344  5.10 12239     9   958 11272  2090  5008  2102  0.19  1694  3145  2738   378 321.1 37.09  31.1 14418 .0146   972   180  1.20  0.98 117.4  27.6  5.14  0.00  0.00  0.00  0.00  0.00  0.00   2.0  0.00  0.00  0.00  0.00
 2023  78   199   116  19.0  -6.0 82.44 16.43  0.96  2.66 292.4  3.72 1.335  5.06 12528     9   961 11559  2088  5064  2306  0.20  1718  3349  2825   382 321.1 38.00  31.8 14418 .0160   951   178  1.20  0.98 100.1  22.3  6.12  0.00  0.00  0.00  0.00  0.00  0.00   2.0  0.00  0.00  0.00  0.00
 2023  79   200   117  19.0  -6.0 82.77 16.43  0.96  2.66 289.5  3.69 1.326  5.02 12814     9   964 11842  2087  5118  2510  0.21  1741  3553  2909   387 321.1 38.92  32.5 14418 .0174   931   177  1.20  0.98  85.5  19.4  5.92  0.00  0.00  0.00  0.00  0.00  0.00   2.0  0.00  0.00  0.00  0.00
 2023  80   201   118  20.1  -6.0 83.12 16.43  0.96  2.66 286.7  3.66 1.317  4.98 13098     9   966 12123  2085  5162  2725  0.22  1760  3769  2979   391 321.1 39.88  33.1 14418 .0189   910   176  1.20  0.98  80.3  18.2  6.43  0.00  0.00  0.00  0.00  0.00  0.00   2.0  0.00  0.01  0.00  0.00
 2023  81   202   119  20.2  -6.0 83.47 16.43  0.95  2.66 286.3  3.63 1.308  4.94 13381     9   968 12404  2083  5204  2942  0.24  1779  3985  3048   396 321.1 40.86  33.6 14418 .0204   890   175  1.20  0.98  75.5  16.7  5.94  0.00  0.00  0.00  0.00  0.00  0.00   2.0  0.00  0.02  0.00  0.00
 2023  82   203   120  19.6  -6.0 83.80 16.43  0.95  2.66 297.4  3.61 1.299  4.91 13675     9   971 12695  2081  5259  3152  0.25  1803  4195  3134   401 321.1 41.81  34.3 14418 .0219   872   173  1.20  0.98  70.5  15.4  5.03  0.00  0.00  0.00  0.00  0.00  0.00   2.0  0.00  0.00  0.00  0.00
 2023  83   204   121  17.6  -6.0 84.11 16.43  0.95  2.66 317.4  3.58 1.292  4.87 13989     9   974 13006  2080  5343  3340  0.26  1838  4384  3261   405 321.1 42.67  35.2 14418 .0232   856   172  1.20  0.98  65.4  13.9  3.60  0.00  0.00  0.00  0.00  0.00  0.00   2.0  0.00  0.00  0.00  0.00
 2023  84   205   122  17.1  -6.0 84.40 16.43  0.95  2.66 304.4  3.41 1.285  4.70 14290     9   977 13305  1995  5432  3524  0.26  1895  4567  3430   459 321.1 43.50  36.8 14418 .0244   841   171  1.20  0.98  60.6  13.6  2.78  0.00  0.00  0.00  0.00  0.00  0.00   2.0  0.00  0.00  0.00  0.00
 2023  85   206   123  17.5  -6.0 84.71 16.43  0.94  2.66 304.5  3.25 1.278  4.53 14591     9   980 13603  1911  5520  3711  0.27  1949  4754  3595   513 321.1 44.35  38.3 14418 .0257   826   170  1.20  0.98  55.6  12.3  2.00  0.00  0.00  0.00  0.00  0.00  0.00   2.0  0.00  0.00  0.00  0.00
 2023  86   207   124  17.5  -6.0 85.01 16.43  0.93  2.66 234.5  3.08 1.270  4.35 14823     9   982 13833  1824  5559  3899  0.28  1984  4942  3691   567 321.1 45.21  39.4 14418 .0270   812   169  1.20  0.98  87.8  25.2  1.90  0.00  0.00  0.00  0.00  0.00  0.00   2.0  0.00  0.00  0.00  0.00
 2023  87   208   125  18.8  -6.0 85.33 16.43  0.92  2.66 279.1  2.92 1.263  4.18 15099     9   984 14106  1737  5620  4100  0.29  2028  5143  3819   622 321.1 46.13  40.7 14418 .0284   798   168  1.20  0.98  83.0  19.5  6.06  0.00  0.00  0.00  0.00  0.00  0.00   2.0  0.00  0.00  0.00  0.00
 2023  88   209   126  18.0  -6.0 85.64 16.43  0.90  2.66 285.5  2.74 1.256  4.00 15381     9   987 14386  1643  5692  4292  0.30  2079  5336  3965   681 321.1 47.02  42.1 14418 .0298   784   167  1.20  0.98  78.1  18.2  6.76  0.00  0.00  0.00  0.00  0.00  0.00   2.0  0.00  0.00  0.00  0.00
 2023  89   210   127  19.3  -6.0 85.98 16.43  0.89  2.66 277.7  2.57 1.249  3.82 15656     9   989 14658  1551  5749  4499  0.31  2122  5542  4087   737 321.1 47.97  43.4 14418 .0312   770   166  1.20  0.98  73.2  17.3  6.29  0.00  0.00  0.00  0.00  0.00  0.00   2.0  0.00  0.00  0.00  0.00
 2023  90   211   128  18.7  -6.0 86.30 16.43  0.87  2.66 301.5  2.39 1.242  3.64 15954     9   992 14954  1452  5827  4699  0.31  2176  5743  4243   798 321.1 48.90  44.9 14418 .0326   757   165  1.20  0.98  67.8  15.1  4.79  0.00  0.00  0.00  0.00  0.00  0.00   2.0  0.00  0.00  0.00  0.00
 2023  91   212   129  19.4  -6.0 86.63 16.43  0.85  2.66 287.1  2.22 1.234  3.46 16238     9   994 15235  1356  5891  4907  0.32  2224  5950  4376   858 321.1 49.86  46.2 14418 .0340   744   164  1.20  0.98  62.7  14.4  3.59  0.00  0.00  0.00  0.00  0.00  0.00   2.0  0.00  0.00  0.00  0.00
 2023  92   213   130  20.8  -6.0 87.00 16.43  0.82  2.66 273.5  2.04 1.227  3.27 16508     9   996 15503  1255  5935  5130  0.33  2264  6173  4483   919 321.1 50.89  47.4 14418 .0356   731   163  1.20  0.98  58.3  13.8  2.69  0.00  0.00  0.00  0.00  0.00  0.00   2.0  0.00  0.06  0.00  0.00
 2023  93   214   131  18.6  -6.0 87.32 16.43  0.79  2.66 253.4  1.85 1.220  3.07 16759     9   998 15752  1145  5984  5329  0.34  2308  6373  4598   986 321.1 51.82  48.7 14418 .0370   719   162  1.20  0.98  54.5  14.5  2.25  0.00  0.00  0.00  0.00  0.00  0.00   2.0  0.00  0.00  0.00  0.00
 2023  94   215   132  17.1  -6.0 87.61 16.43  0.76  2.66 268.1  1.68 1.214  2.90 17024     9  1001 16014  1046  6053  5513  0.34  2358  6556  4737  1046 321.1 52.67  50.1 14418 .0382   709   161  1.20  0.98  50.7  13.5  1.72  0.00  0.00  0.00  0.00  0.00  0.00   2.0  0.00  0.00  0.00  0.00
 2023  95   216   133  15.9  -6.0 87.89 16.43  0.73  2.66 253.2  1.53 1.209  2.73 17274     9  1003 16262   954  6121  5681  0.35  2406  6724  4872  1101 321.1 53.47  51.4 14418 .0394   700   160  1.20  0.98  47.1  13.7  1.45  0.00  0.00  0.00  0.00  0.00  0.00   2.0  0.00  0.00  0.00  0.00
 2023  96   217   134  15.9  -6.0 88.16 16.43  0.69  2.66 253.5  1.38 1.204  2.59 17525     9  1005 16511   868  6188  5850  0.35  2453  6893  5003  1152 321.1 54.26  52.6 14418 .0406   691   159  1.20  0.98  43.6  12.5  1.13  0.00  0.00  0.13  0.00  0.00  0.00   2.0  0.00  0.00  0.00  0.00
 2023  97   218   135  17.3  -6.0 88.46 16.43  0.65  2.42 219.5  1.24 1.194  2.43 17742     9  1007 16726   782  6198  6035  0.36  2491  7078  5084  1220 321.1 55.13  53.7 14418 .0419   681   158  1.20  0.98  40.5  11.9  0.91  0.18  0.09  0.30  0.00  0.00  0.00   2.0  0.00  0.00  0.00  0.00
 2023  98   219   136  19.2  -6.0 88.79 16.43  0.60  1.98 171.0  1.08 1.183  2.26 17910     9  1008 16893   687  6160  6241  0.37  2513  7284  5102  1293 321.1 56.10  54.5 14418 .0433   671   157  1.20  0.98  37.9  11.3  0.74  0.51  0.26  0.43  0.00  0.00  0.00   1.9  0.00  0.00  0.00  0.00
 2023  99   220   137  20.0  -6.0 89.14 16.43  0.54  1.77 142.2  0.91 1.172  2.08 18050     9  1009 17033   580  6096  6455  0.38  2527  7498  5090  1374 321.1 57.11  55.3 14418 .0448   661   156  1.20  0.98  35.8  11.3  0.67  0.67  0.33  0.49  0.00  0.00  0.00   1.6  0.00  0.00  0.00  0.00
 2023 100   221   138  19.5  -6.0 89.47 16.43  0.46  1.87 124.6  0.73 1.162  1.89 18173     9  1009 17155   469  6026  6664  0.39  2539  7707  5069  1457 321.1 58.09  56.1 14418 .0462   651   155  1.20  0.98  33.9  13.1  0.70  0.60  0.30  0.46  0.00  0.00  0.00   1.6  0.00  0.00  0.00  0.00
 2023 101   222   139  21.5  -6.0 89.85 16.43  0.38  1.80 106.6  0.55 1.150  1.70 18278     9  1010 17259   359  5925  6895  0.40  2540  7938  5006  1541 321.1 59.18  56.7 14418 .0478   641   154  1.20  0.98  32.3  13.6  0.67  0.65  0.33  0.48  0.00  0.00  0.00   1.2  0.00  0.10  0.00  0.00
 2023 102   223   140  20.7  -6.0 90.59 16.43  0.26  2.05  98.2  0.36 1.140  1.50 18374     9  1010 17356   236  5914  6993  0.40  2582  8036  5076  1631 321.1 60.22  58.1 14418 .0485   631   153  1.20  0.98  30.8  16.6  0.77  0.46  0.23  0.41  0.00  0.00  0.00   1.1  0.00  0.04  0.00  0.00

*DSSAT Cropping System Model Ver. 4.8.2.000 -release  JUN 21, 2025 19:12:05

*RUN   2        : WW23_G-2                  CSCER048 CIOB2301    2
 MODEL          : CSCER048 - Wheat
 EXPERIMENT     : CIOB2301 WH ROOTS ANATOMY
 DATA PATH      : C:\DSSAT48\Wheat\
 TREATMENT  2   : WW23_G-2                  CSCER048
  
@YEAR DOY   DAS   DAP TMEAN TKILL  GSTD  L#SD PARID PARUD  AWAD  LAID  SAID  CAID  TWAD SDWAD  RWAD  CWAD  LWAD  SWAD  HWAD  HIAD CHWAD  EWAD RSWAD SNWPD SNWLD SNWSD  RS%D  H#AD  HWUD  T#AD  SLAD  RDPD  PTFD  SWXD WAVRD WUPRD  WFTD  WFPD  WFGD  NFTD  NFPD  NFGD NUPRD  TFPD  TFGD VRNFD DYLFD
 2022 327    83     0  17.6  -6.0  0.00  0.00  0.00  0.00   0.0  0.00 0.000  0.00    43    43     0     0     0     0     0  0.00     0     0     0     0     0     0   0.0     0     0   150   -99  0.04  0.98  19.7  99.9  1.00  0.00  0.00  0.00  0.00  0.00  0.00   0.0  0.00  0.00  0.60  0.00
 2022 328    84     1  16.4  -6.0  5.84  0.00  0.00  0.00   0.0  0.00 0.000  0.00    43    43     0     0     0     0     0  0.00     0     0     0     0     0     0   0.0     0     0   150   -99  0.04  0.98   7.2  99.9  1.00  0.00  0.00  0.00  0.00  0.00  0.00   0.0  0.00  0.00  0.60  0.00
 2022 329    85     2  17.4  -6.0  8.40  0.00  0.00  0.00   0.0  0.00 0.000  0.00    43    41     1     0     0     0     0  0.00     0     0     0     0     0     0   0.0     0     0   150   -99  0.07  0.98   4.4  99.9  1.00  0.00  0.00  0.00  0.00  0.00  0.00   0.0  0.00  0.00  0.60  0.00
 2022 330    86     3  18.0  -6.0 10.00  0.00  0.00  0.00   0.0  0.00 0.000  0.00    43    40     3     0     0     0     0  0.00     0     0     0     0     0 .0012   0.0     0     0   150   -99  0.09  0.98   3.8  99.9  1.00  0.00  0.00  0.00  0.00  0.00  0.00   2.0  0.00  0.00  0.60  0.00
 2022 331    87     4  16.3  -6.0 10.34  0.34  0.03  0.00   0.0  0.03 0.003  0.03    43    26     4    13     9     4     0  0.00     0     0     0     0     0 .0034   0.0     0     0   150   350  0.12  0.75   3.9  99.9  1.00  0.00  0.00  0.00  0.00  0.00  0.00   0.1  0.00  0.00  0.60  0.16
 2022 332    88     5  16.1  -6.0 10.68  0.68  0.03  0.59   1.2  0.04 0.004  0.04    44    20     5    18    12     7     0  0.00     0     0     1     0 0.128 .0066   5.2     0     0   150   347  0.14  0.68   4.2  56.3  0.28  1.00  0.72  0.79  0.00  0.00  0.00   0.1  0.00  0.00  0.60  0.17
 2022 333    89     6  18.1  -6.0 11.05  1.05  0.04  0.42   1.1  0.05 0.005  0.06    44    14     7    24    15     9     0  0.00     0     0     2     0 0.299 .0113   7.8     0     0   150   347  0.17  0.68   5.7  55.5  0.27  1.00  0.73  0.80  0.27  0.27  0.27   0.2  0.00  0.00  0.60  0.17
 2022 334    90     7  18.5  -6.0 11.44  1.44  0.05  0.38   1.3  0.06 0.006  0.06    45    10     8    27    17    10     0  0.00     0     0     2     0 0.518 .0173   7.1     0     0   150   346  0.20  0.69   7.2  56.2  0.31  1.00  0.69  0.76  0.42  0.42  0.42   0.4  0.00  0.00  0.60  0.17
 2022 335    91     8  19.2  -6.0 11.84  1.84  0.05  0.41   1.5  0.06 0.006  0.07    46     9     9    29    18    11     0  0.00     0     0     2     0 0.767 .0250   6.9     0     0   150   345  0.23  0.69   8.9  59.2  0.35  1.00  0.65  0.73  0.46  0.46  0.46   0.8  0.00  0.00  0.60  0.17
 2022 336    92     9  23.0  -6.0 12.16  2.16  0.05  0.43   1.7  0.06 0.006  0.07    47     9     9    30    19    11     0  0.00     0     0     2     0 1.031 .0350   6.9     0     0   150   344  0.26  0.69  10.9  66.8  0.34  1.00  0.66  0.74  0.41  0.41  0.41   1.2  0.00  0.20  0.60  0.17
 2022 337    93    10  23.0  -6.0 12.40  2.40  0.05  0.49   1.8  0.07 0.007  0.07    49     9     9    31    19    12     0  0.00     0     0     2     0 1.306 .0454   6.9     0     0   150   343  0.29  0.70  12.9  84.2  0.36  1.00  0.64  0.72  0.37  0.37  0.37   1.4  0.00  0.20  0.60  0.17
 2022 338    94    11  22.0  -6.0 12.63  2.63  0.06  0.54   1.9  0.07 0.007  0.08    50     9    10    32    20    12     0  0.00     0     0     2     0 1.590 .0557   7.0     0     0   150   342  0.33  0.70  14.8  99.5  0.38  1.00  0.62  0.71  0.33  0.33  0.33   1.5  0.00  0.13  0.60  0.17
 2022 339    95    12  22.2  -6.0 12.86  2.86  0.06  1.39   2.1  0.07 0.007  0.08    52     9    10    33    21    12     0  0.00     0     0     2     0 1.590 .0666   6.0     0     0   199   341  0.36  0.73  17.0  99.9  0.92  0.15  0.08  0.29  0.29  0.29  0.29   1.4  0.00  0.15  0.60  0.17
 2022 340    96    13  19.7  -6.0 13.06  3.06  0.06  1.57   1.8  0.08 0.008  0.08    54     9    10    35    22    13     0  0.00     0     0     2     0 1.590 .0765   5.3     0     0   245   340  0.38  0.74  20.2  99.9  1.30  0.00  0.00  0.00  0.26  0.26  0.26   1.5  0.00  0.00  0.60  0.17
 2022 341    97    14  20.0  -6.0 13.27  3.27  0.07  1.34   2.7  0.08 0.008  0.09    56     9    11    37    24    13     0  0.00     0     0     2     0 1.590 .0868   4.5     0     0   285   339  0.40  0.74  20.7  99.9  0.82  0.36  0.18  0.37  0.23  0.23  0.23   1.4  0.00  0.00  0.60  0.17
 2022 342    98    15  20.8  -6.0 13.49  3.49  0.07  0.63   2.8  0.08 0.008  0.09    58     9    11    38    25    14     0  0.00     0     0     2     0 1.936 .0980   4.9     0     0   285   337  0.42  0.70  21.4  99.9  0.37  1.00  0.63  0.71  0.21  0.21  0.21   1.3  0.00  0.05  0.60  0.17
 2022 343    99    16  18.0  -6.0 13.67  3.67  0.07  0.62   3.2  0.09 0.009  0.10    61     9    12    40    26    15     0  0.00     0     0     2     0 2.297 0.108   5.2     0     0   285   336  0.44  0.70  22.5  99.9  0.36  1.00  0.64  0.73  0.18  0.18  0.18   1.5  0.00  0.00  0.60  0.17
 2022 344   100    17  17.0  -6.0 13.85  3.85  0.07  0.64   3.6  0.09 0.009  0.10    63     9    12    42    27    15     0  0.00     0     0     2     0 2.673 0.118   5.4     0     0   285   335  0.45  0.70  23.5  99.9  0.36  1.00  0.64  0.73  0.16  0.16  0.16   1.5  0.00  0.00  0.60  0.17
 2022 345   101    18  16.2  -6.0 14.02  4.02  0.08  0.72   4.1  0.10 0.010  0.11    67     9    13    45    29    16     0  0.00     0     0     2     0 3.068 0.128   5.5     0     0   285   334  0.47  0.71  24.5  99.9  0.39  1.00  0.61  0.70  0.14  0.14  0.14   1.5  0.00  0.00  0.60  0.17
 2022 346   102    19  16.1  -6.0 14.19  4.19  0.08  0.76   4.6  0.09 0.010  0.10    68     9    14    46    28    18     0  0.00     0     0     5     0 5.349 0.139  10.0     0     0   285   332  0.48  0.71  25.4  99.9  0.41  1.00  0.59  0.69  0.12  0.12  0.12   1.4  0.00  0.00  0.60  0.17
 2022 347   103    20  15.1  -6.0 14.34  4.34  0.07  0.96   5.3  0.09 0.010  0.10    71     9    15    48    28    20     0  0.00     0     0     6     0 7.505 0.150  13.3     0     0   285   330  0.50  0.72  73.1  99.9  0.50  1.00  0.50  0.61  0.10  0.10  0.10   2.0  0.00  0.00  0.60  0.17
 2022 348   104    21  15.2  -6.0 21.19  4.50  0.08  1.95  11.6  0.10 0.011  0.11    80     9    17    55    31    23     0  0.00     0     0     8     0 9.277 0.161  13.9     0     0   328   326  0.51  0.76  56.1  99.9  1.93  0.00  0.00  0.00  0.08  0.08  0.08   2.0  0.00  0.00  0.60  0.17
 2022 349   105    22  14.6  -6.0 21.47  4.66  0.09  2.00  12.9  0.12 0.013  0.13    90     9    18    63    36    27     0  0.00     0     0     9     0 11.00 0.173  13.9     0     0   371   324  0.53  0.76  40.8  99.9  2.07  0.00  0.00  0.00  0.06  0.06  0.06   1.7  0.00  0.00  0.59  0.17
 2022 350   106    23  12.5  -6.0 21.72  4.79  0.11  2.03   8.2  0.13 0.014  0.14    97     9    20    69    41    28     0  0.00     0     0     8     0 11.11 0.184  11.7     0     0   408   322  0.54  0.76  34.5  99.9  2.48  0.00  0.00  0.00  0.05  0.05  0.05   2.0  0.00  0.00  0.49  0.17
 2022 351   107    24  14.9  -6.0 22.02  4.94  0.12  2.05  15.9  0.16 0.017  0.17   111     9    22    81    49    32     0  0.00     0     0     7     0 11.11 0.199   9.2     0     0   453   321  0.55  0.77  32.5  99.9  1.29  0.00  0.00  0.01  0.04  0.04  0.04   0.7  0.00  0.00  0.49  0.17
 2022 352   108    25  15.5  -6.0 22.31  5.10  0.15  1.93  17.8  0.19 0.020  0.21   127     9    24    95    58    36     0  0.00     0     0     7     0 11.11 0.216   7.4     0     0   497   319  0.57  0.76  32.8  98.7  1.11  0.00  0.00  0.14  0.09  0.09  0.09   0.7  0.00  0.00  0.49  0.17
 2022 353   109    26  14.8  -6.0 22.58  5.26  0.17  1.74  19.1  0.21 0.024  0.24   144     9    27   109    67    41     0  0.00     0     0     7     0 11.67 0.234   6.6     0     0   537   317  0.58  0.76  33.3  85.4  0.95  0.11  0.05  0.27  0.13  0.13  0.13   0.7  0.00  0.00  0.48  0.17
 2022 354   110    27  16.6  -6.0 22.87  5.43  0.19  1.70  19.4  0.24 0.027  0.27   161     9    30   123    77    46     0  0.00     0     0     7     0 12.31 0.256   6.0     0     0   581   315  0.60  0.76  34.0  81.3  0.95  0.11  0.05  0.27  0.16  0.16  0.16   0.8  0.00  0.00  0.48  0.17
 2022 355   111    28  15.2  -6.0 23.19  5.59  0.21  1.50  21.3  0.27 0.030  0.30   180     9    33   138    87    51     0  0.00     0     0     8     0 12.90 0.279   5.5     0     0   628   313  0.61  0.76  34.4  67.6  0.83  0.34  0.17  0.36  0.15  0.15  0.15   0.8  0.00  0.00  0.48  0.17
 2022 356   112    29  15.3  -6.0 23.46  5.75  0.23  1.44  23.0  0.30 0.034  0.34   200     9    36   155    98    57     0  0.00     0     0     8     0 13.50 0.304   5.0     0     0   669   312  0.63  0.75  34.9  60.6  0.79  0.42  0.21  0.39  0.14  0.14  0.14   0.9  0.00  0.00  0.48  0.17
 2022 357   113    30  15.9  -6.0 23.73  5.91  0.25  1.41  24.6  0.34 0.038  0.38   221     9    40   173   109    63     0  0.00     0     0     8     0 14.12 0.333   4.6     0     0   709   311  0.64  0.75  35.3  55.1  0.77  0.47  0.23  0.41  0.14  0.14  0.14   0.9  0.00  0.00  0.48  0.17
 2022 358   114    31  16.2  -6.0 23.96  6.08  0.27  1.37  26.4  0.38 0.043  0.42   244     9    44   192   122    70     0  0.00     0     0     8     0 14.75 0.366   4.3     0     0   745   310  0.65  0.75  35.7  50.2  0.73  0.54  0.27  0.44  0.12  0.12  0.12   0.9  0.00  0.00  0.48  0.17
 2022 359   115    32  17.8  -6.0 24.15  6.27  0.30  1.27  26.9  0.41 0.047  0.46   268     9    48   211   134    77     0  0.00     0     0     9     0 15.38 0.405   4.1     0     0   773   308  0.67  0.74  36.2  44.6  0.67  0.66  0.33  0.48  0.11  0.11  0.11   1.0  0.00  0.00  0.56  0.17
 2022 360   116    33  17.0  -6.0 24.30  6.44  0.32  1.24  28.9  0.45 0.052  0.51   293     9    52   232   148    84     0  0.00     0     0     9     0 15.99 0.445   3.8     0     0   796   307  0.68  0.74  36.6  41.8  0.64  0.71  0.36  0.51  0.10  0.10  0.10   1.0  0.00  0.00  0.56  0.17
 2022 361   117    34  17.5  -6.0 24.43  6.63  0.34  1.21  29.9  0.50 0.057  0.55   319     9    57   254   162    92     0  0.00     0     0     9     0 16.63 0.491   3.6     0     0   815   305  0.70  0.74  37.0  39.2  0.62  0.77  0.38  0.53  0.08  0.08  0.08   1.0  0.00  0.00  0.60  0.17
 2022 362   118    35  16.6  -6.0 24.92  6.80  0.37  1.95  32.5  0.54 0.062  0.60   348     9    61   278   178   100     0  0.00     0     0    10     0 17.23 0.539   3.4     0     0   887   304  0.71  0.77  37.4  61.4  0.98  0.04  0.02  0.25  0.07  0.07  0.07   1.0  0.00  0.00  0.60  0.17
 2022 363   119    36  17.2  -6.0 25.42  6.98  0.38  2.01  15.6  0.56 0.065  0.63   362     9    63   290   186   104     0  0.00     0     0    10     0 17.85 0.591   3.3     0     0   964   304  0.72  0.77  38.3  99.9  2.16  0.00  0.00  0.00  0.05  0.05  0.05   2.0  0.00  0.00  0.60  0.17
 2022 364   120    37  18.6  -6.0 25.50  7.17  0.40  1.16  32.2  0.60 0.069  0.67   387     9    68   310   197   113     0  0.00     0     0    12     0 20.95 0.651   4.0     0     0   976   303  0.74  0.74  38.8  36.4  0.57  0.86  0.43  0.56  0.05  0.05  0.05   1.1  0.00  0.00  0.60  0.17
 2022 365   121    38  17.8  -6.0 25.54  7.36  0.41  1.10  33.4  0.63 0.073  0.70   413     9    74   331   208   122     0  0.00     0     0    16     0 24.95 0.712   4.8     0     0   982   301  0.75  0.73  39.2  33.9  0.53  0.93  0.47  0.59  0.04  0.04  0.04   1.4  0.00  0.00  0.60  0.17
 2023   1   122    39  16.6  -6.0 25.68  7.53  0.44  1.30  35.9  0.68 0.079  0.76   445     9    79   357   226   131     0  0.00     0     0    15     0 24.95 0.773   4.2     0     0  1001   300  0.77  0.74  39.6  39.2  0.63  0.75  0.37  0.52  0.03  0.03  0.03   1.4  0.00  0.00  0.60  0.17
 2023   2   123    40  15.1  -6.0 25.92  7.69  0.46  1.58  38.0  0.73 0.086  0.82   479     9    85   386   246   140     0  0.00     0     0    14     0 24.95 0.833   3.7     0     0  1038   299  0.78  0.76  39.8  46.8  0.76  0.49  0.24  0.42  0.02  0.02  0.02   1.1  0.00  0.00  0.60  0.17
 2023   3   124    41  13.8  -6.0 25.95  7.83  0.48  1.13  39.6  0.78 0.092  0.87   511     9    91   412   261   151     0  0.00     0     0    17     0 28.46 0.891   4.2     0     0  1043   298  0.79  0.74  81.0  66.6  0.54  0.92  0.46  0.59  0.02  0.02  0.02   1.0  0.00  0.00  0.55  0.17
 2023   4   125    42  16.3  -6.0 26.45  8.00  0.53  2.10  79.2  0.89 0.106  1.00   584     9   101   474   301   173     0  0.00     0     0    17     0 28.46 0.965   3.7     0     0  1118   296  0.80  0.78  64.2  44.1  1.83  0.00  0.00  0.00  0.01  0.01  0.01   1.3  0.00  0.00  0.55  0.17
 2023   5   126    43  17.6  -6.0 27.00  8.18  0.57  2.12  90.5  1.00 0.120  1.12   661     9   113   540   341   199     0  0.00     0     0    23     0 33.23 1.054   4.2     0     0  1200   294  0.82  0.78  55.4  33.2  1.78  0.00  0.00  0.00  0.01  0.01  0.01   1.2  0.00  0.00  0.58  0.17
 2023   6   127    44  18.3  -6.0 27.57  8.37  0.61  2.13  96.2  1.12 0.135  1.25   744     9   125   611   383   228     0  0.00     0     0    28     0 38.21 1.157   4.6     0     0  1286   292  0.83  0.79  52.1  29.6  1.48  0.00  0.00  0.00  0.00  0.00  0.00   1.1  0.00  0.00  0.58  0.17
 2023   7   128    45  17.7  -6.0 28.12  8.56  0.65  2.13  99.9  1.24 0.151  1.39   831     9   138   684   428   256     0  0.00     0     0    32     0 43.06 1.268   4.7     0     0  1369   290  0.85  0.79  50.6  28.2  1.41  0.00  0.00  0.00  0.00  0.00  0.00   1.0  0.00  0.00  0.58  0.17
 2023   8   129    46  17.3  -6.0 28.66  8.74  0.69  2.13 106.2  1.37 0.169  1.54   923     9   151   763   476   287     0  0.00     0     0    37     0 47.82 1.387   4.8     0     0  1450   289  0.86  0.79  49.7  26.3  1.29  0.00  0.00  0.00  0.00  0.00  0.00   1.0  0.00  0.00  0.58  0.17
 2023   9   130    47  16.6  -6.0 29.18  8.91  0.73  2.13 117.4  1.53 0.189  1.72  1027     9   166   853   533   320     0  0.00     0     0    39     0 50.84 1.513   4.6     0     0  1528   287  0.88  0.79  48.6  23.4  1.07  0.00  0.00  0.18  0.00  0.00  0.00   0.9  0.00  0.00  0.58  0.17
 2023  10   131    48  17.2  -6.0 29.67  9.09  0.76  2.01 113.4  1.69 0.210  1.90  1131     9   181   941   592   350     0  0.00     0     0    38     0 50.84 1.656   4.1     0     0  1600   286  0.89  0.78  47.5  22.0  0.95  0.10  0.05  0.27  0.01  0.01  0.01   0.9  0.00  0.00  0.58  0.17
 2023  11   132    49  17.9  -6.0 30.00  9.28  0.78  1.68 104.6  1.80 0.224  2.02  1216     9   195  1013   632   381     0  0.00     0     0    47     0 60.30 1.817   4.6     0     0  1651   285  0.91  0.77  46.5  19.2  0.80  0.39  0.20  0.38  0.02  0.02  0.02   0.9  0.00  0.00  0.60  0.17
 2023  12   133    50  18.4  -6.0 30.00  9.47  0.80  1.58 101.5  1.90 0.238  2.14  1298     9   209  1080   670   410     0  0.00     0     0    55     0 70.05 1.996   5.1     0     0  1695   283  0.92  0.77  45.5  18.3  0.76  0.49  0.24  0.42  0.02  0.02  0.02   1.2  0.00  0.00  0.60  0.17
 2023  13   134    51  16.6  -6.0 30.00  9.64  0.82  1.49  96.7  2.00 0.252  2.25  1376     9   223  1145   708   437     0  0.00     0     0    61     0 78.92 2.170   5.3     0     0  1728   282  0.93  0.76  44.8  18.1  0.71  0.58  0.29  0.46  0.01  0.01  0.01   1.2  0.00  0.00  0.60  0.17
 2023  14   135    52  17.6  -6.0 30.00  9.83  0.83  1.34  87.3  2.08 0.264  2.35  1445     9   235  1202   741   461     0  0.00     0     0    67     0 88.34 2.367   5.5     0     0  1750   281  0.95  0.75  44.2  17.4  0.63  0.74  0.37  0.51  0.01  0.01  0.01   1.3  0.00  0.00  0.60  0.17
 2023  15   136    53  16.9  -6.0 30.00 10.00  0.84  1.84  84.0  2.17 0.276  2.45  1513     9   246  1258   774   484     0  0.00     0     0    71     0 97.35 2.565   5.7     0     0  1808   281  0.96  0.78  43.8  25.6  0.87  0.26  0.13  0.33  0.00  0.00  0.00   1.4  0.00  0.00  0.60  0.17
 2023  16   137    54  17.0  -6.0 30.00 10.18  0.85  1.15  77.4  2.20 0.281  2.48  1561     9   258  1295   786   509     0  0.00     0     0    87     0 118.3 2.774   6.8     0     0  1814   279  0.98  0.75  43.4  17.2  0.54  0.92  0.46  0.58  0.00  0.00  0.00   1.5  0.00  0.00  0.60  0.16
 2023  17   138    55  14.1  -6.0 30.00 10.32  0.85  2.13  43.2  2.23 0.287  2.52  1592     9   263  1321   802   519     0  0.00     0     0    88     0 126.6 2.955   6.7     0     0  1880   279  0.99  0.79  43.9  61.6  1.79  0.00  0.00  0.00  0.00  0.00  0.00   2.0  0.00  0.00  0.57  0.16
 2023  18   139    56  13.8  -6.0 30.00 10.47  0.85  1.14  74.4  2.26 0.292  2.56  1640     9   274  1357   816   542     0  0.00     0     0   101     0 146.0 3.137   7.5     0     0  1884   278  1.00  0.75  43.4  18.7  0.53  0.93  0.47  0.59  0.00  0.00  0.00   1.6  0.00  0.00  0.52  0.16
 2023  19   140    57  14.2  -6.0 30.00 10.62  0.86  1.05  68.8  2.29 0.297  2.58  1681     9   284  1389   827   562     0  0.00     0     0   113     0 166.0 3.332   8.1     0     0  1884   277  1.01  0.74  43.2  18.4  0.49  1.00  0.51  0.62  0.00  0.00  0.00   2.0  0.00  0.00  0.49  0.16
 2023  20   141    58  13.8  -6.0 30.00 10.76  0.86  0.90  65.6  2.34 0.305  2.65  1728     9   294  1425   849   577     0  0.00     0     0   115     0 177.6 3.527   8.1     0     0  1884   276  1.02  0.74  98.8  37.6  0.42  1.00  0.58  0.68  0.00  0.00  0.00   2.0  0.00  0.00  0.45  0.16
 2023  21   142    59  14.1  -6.0 30.00 10.91  0.89  2.13 158.2  2.57 0.336  2.90  1873     9   314  1551   935   616     0  0.00     0     0   109     0 177.6 3.735   7.0     0     0  1950   274  1.03  0.80  82.0  30.7  3.24  0.00  0.00  0.00  0.00  0.00  0.00   1.8  0.00  0.00  0.41  0.16
 2023  22   143    60  14.1  -6.0 30.00 11.05  0.91  2.13 166.3  2.80 0.368  3.17  2026     9   334  1684  1025   659     0  0.00     0     0   104     0 177.6 3.955   6.2     0     0  2016   273  1.05  0.80  72.9  25.8  3.26  0.00  0.00  0.00  0.00  0.00  0.00   1.4  0.00  0.00  0.38  0.16
 2023  23   144    61  12.6  -6.0 30.00 11.18  0.92  2.13 144.0  2.95 0.390  3.34  2146     9   351  1786  1087   700     0  0.00     0     0   111     0 189.9 4.165   6.2     0     0  2016   272  1.06  0.80  70.4  29.9  3.99  0.00  0.00  0.00  0.00  0.00  0.00   1.7  0.00  0.00  0.29  0.16
 2023  24   145    62  13.1  -6.0 30.00 11.32  0.93  2.13 173.2  3.14 0.417  3.56  2292     9   372  1912  1162   750     0  0.00     0     0   119     0 202.8 4.394   6.2     0     0  2016   270  1.07  0.80  67.9  23.8  3.06  0.00  0.00  0.00  0.00  0.00  0.00   1.7  0.00  0.00  0.21  0.16
 2023  25   146    63  14.5  -6.0 30.00 11.47  0.94  2.13 176.4  3.32 0.445  3.77  2440     9   392  2039  1237   801     0  0.00     0     0   127     0 217.2 4.664   6.3     0     0  2016   269  1.08  0.80  65.5  21.5  2.60  0.00  0.00  0.00  0.00  0.00  0.00   1.7  0.00  0.00  0.20  0.16
 2023  26   147    64  15.7  -6.0 30.00 11.63  0.95  2.13 164.3  3.53 0.475  4.01  2587     9   412  2166  1322   844     0  0.00     0     0   125     0 221.1 4.971   5.8     0     0  2016   267  1.09  0.80  63.3  21.9  2.46  0.00  0.00  0.00  0.00  0.00  0.00   1.9  0.00  0.00  0.00  0.00
 2023  27   148    65  12.1  -6.0 30.00 11.76  0.96  2.13 132.6  3.70 0.500  4.20  2705     9   427  2269  1391   878     0  0.00     0     0   122     0 224.8 5.221   5.4     0     0  2016   266  1.10  0.80  61.7  28.2  2.76  0.00  0.00  0.00  0.00  0.00  0.00   2.0  0.00  0.00  0.00  0.00
 2023  28   149    66  15.6  -6.0 30.00 11.92  0.96  2.13 148.8  3.88 0.527  4.41  2837     9   444  2384  1466   918     0  0.00     0     0   121     0 229.7 5.554   5.1     0     0  2016   265  1.11  0.81  59.9  22.5  2.00  0.00  0.00  0.00  0.00  0.00  0.00   1.9  0.00  0.00  0.00  0.00
 2023  29   150    67  14.4  -6.0 30.00 12.07  0.97  2.13 181.6  4.10 0.560  4.66  3000     9   465  2527  1556   971     0  0.00     0     0   123     0 234.2 5.875   4.9     0     0  2016   264  1.13  0.81  57.5  18.1  1.43  0.00  0.00  0.00  0.00  0.00  0.00   1.6  0.00  0.00  0.00  0.00
 2023  30   151    68  14.6  -6.0 30.35 12.22  0.97  2.13 163.1  4.29 0.590  4.88  3146     9   483  2654  1635  1019     0  0.00     0     0   125     0 238.7 6.213   4.7     0     0  2016   262  1.14  0.81  55.4  19.3  1.32  0.00  0.00  0.00  0.00  0.00  0.00   1.8  0.00  0.00  0.00  0.00
 2023  31   152    69  14.5  -6.0 31.04 12.37  0.98  2.13 168.0  4.47 0.620  5.09  3296     9   501  2787  1710  1076     0  0.00     0     0   127     0 243.2 6.563   4.6     0     0  2016   262  1.15  0.81  53.3  18.0  1.10  0.00  0.00  0.15  0.00  0.00  0.00   1.7  0.00  0.00  0.00  0.00
 2023  32   153    70  13.4  -6.0 31.68 12.51  0.98  2.13 126.0  4.62 0.643  5.26  3408     9   515  2885  1763  1122     0  0.00     0     0   127     0 247.4 6.897   4.4     0     0  2016   262  1.16  0.82  51.9  24.3  1.31  0.00  0.00  0.00  0.00  0.00  0.00   2.0  0.00  0.00  0.00  0.00
 2023  33   154    71  15.9  -6.0 32.43 12.68  0.98  1.71 139.4  4.76 0.668  5.43  3531     9   531  2992  1820  1171     0  0.00     0     0   128     0 252.4 7.305   4.3     0     0  2016   262  1.17  0.80  50.2  16.0  0.80  0.39  0.20  0.38  0.00  0.00  0.00   2.0  0.00  0.00  0.00  0.00
 2023  34   155    72  16.9  -6.0 33.24 12.85  0.98  1.47 118.8  4.88 0.688  5.57  3634     9   546  3080  1867  1214     0  0.00     0     0   130     0 257.7 7.753   4.2     0     0  2016   261  1.19  0.79  95.6  29.5  0.69  0.62  0.31  0.47  0.00  0.00  0.00   2.0  0.00  0.00  0.00  0.00
 2023  35   156    73  16.9  -6.0 34.04 13.03  0.99  2.13 179.2  5.06 0.720  5.78  3795     9   564  3223  1942  1281     0  0.00     0     0   136     0 263.0 8.214   4.2     0     0  2016   261  1.20  0.82  88.2  26.2  4.00  0.00  0.00  0.00  0.00  0.00  0.00   2.0  0.00  0.00  0.00  0.00
 2023  36   157    74  18.1  -6.0 34.91 13.22  0.99  2.13 179.6  5.23 0.752  5.98  3956     9   582  3366  2016  1350     0  0.00     0     0   144     0 268.8 8.726   4.3     0     0  2016   259  1.22  0.83  83.2  24.0  4.79  0.00  0.00  0.00  0.00  0.00  0.00   2.0  0.00  0.00  0.00  0.00
 2023  37   158    75  16.7  -6.0 35.70 13.39  0.99  2.13 172.6  5.39 0.783  6.18  4111     9   599  3504  2085  1418     0  0.00     0     0   151     0 274.1 9.212   4.3     0     0  2016   259  1.22  0.83  80.1  25.0  5.20  0.00  0.00  0.00  0.00  0.00  0.00   2.0  0.00  0.00  0.00  0.00
 2023  38   159    76  16.2  -6.0 36.47 13.56  0.99  2.13 187.6  5.56 0.817  6.38  4281     9   617  3655  2161  1494     0  0.00     0     0   160     0 279.2 9.697   4.4     0     0  2016   257  1.22  0.83  76.6  22.4  4.67  0.00  0.00  0.00  0.00  0.00  0.00   2.0  0.00  0.00  0.00  0.00
 2023  39   160    77  18.1  -6.0 37.34 13.75  0.99  2.13 193.2  5.73 0.852  6.59  4455     9   636  3811  2237  1574     0  0.00     0     0   169     0 285.0 10.26   4.4     0     0  2016   256  1.22  0.84  72.8  19.6  3.75  0.00  0.00  0.00  0.00  0.00  0.00   2.0  0.00  0.00  0.00  0.00
 2023  40   161    78  15.1  -6.0 38.06 13.91  0.99  2.13 195.5  5.88 0.887  6.76  4633     9   654  3970  2313  1657     0  0.00     0     0   179     0 289.8 10.74   4.5     0     0  1963   254  1.22  0.84  69.2  19.4  3.07  0.00  0.00  0.00  0.00  0.00  0.00   2.0  0.00  0.00  0.00  0.00
 2023  41   162    79  17.1  -6.0 38.87 14.08  0.99  2.13 172.4  5.99 0.919  6.91  4788     9   670  4110  2378  1732     0  0.00     0     0   187     0 295.3 11.30   4.5     0     0  1905   252  1.22  0.84  65.8  20.1  2.68  0.00  0.00  0.00  0.00  0.00  0.00   2.0  0.00  0.00  0.00  0.00
 2023  42   163    80  14.0  -6.0 39.54 14.23  0.99  2.13  62.4  6.02 0.932  6.95  4842     9   675  4159  2396  1762     0  0.00     0     0   180     0 299.9 11.77   4.3     0     0  1860   251  1.22  0.85  64.7  59.4  6.60  0.00  0.00  0.00  0.00  0.00  0.00   2.0  0.00  0.00  0.00  0.00
 2023  43   164    81  15.7  -6.0 40.30 14.39  0.99  2.13 175.7  6.13 0.964  7.09  5001     9   690  4302  2461  1841     0  0.00     0     0   189     0 305.0 12.30   4.4     0     0  1810   249  1.22  0.85  61.5  19.3  2.11  0.00  0.00  0.00  0.00  0.00  0.00   2.0  0.00  0.00  0.00  0.00
 2023  44   165    82  13.9  -6.0 41.00 14.39  0.99  2.66 148.3  6.05 0.981  7.04  5140     9   703  4429  2495  1922     0  0.00     0     0   239    12 305.0 12.78   5.4     0     0  1767   243  1.22  0.85  59.4  28.9  2.73  0.00  0.00  0.00  0.00  0.00  0.00   2.0  0.00  0.00  0.00  0.00
 2023  45   166    83  13.7  -6.0 41.68 14.39  0.99  2.66 221.1  5.98 1.008  6.99  5348     9   722  4618  2516  2079     0  0.00     0     0   307    23 305.0 13.26   6.7     0     0  1726   238  1.22  0.85  56.3  18.2  1.62  0.00  0.00  0.00  0.00  0.00  0.00   2.0  0.00  0.00  0.00  0.00
 2023  46   167    84  14.2  -6.0 42.39 14.39  0.99  2.66 227.6  5.91 1.037  6.95  5562     9   741  4813  2503  2275     0  0.00     0     0   378    36 305.0 13.77   7.9     0     0  1685   236  1.22  0.86  56.8  17.8  1.33  0.00  0.00  0.00  0.00  0.00  0.00   2.0  0.00  0.00  0.00  0.00
 2023  47   168    85  14.1  -6.0 43.10 14.39  0.99  2.66 251.3  5.84 1.069  6.91  5799     9   761  5030  2490  2492     0  0.00     0     0   455    48 305.0 14.29   9.1     0     0  1645   235  1.22  0.86  53.2  15.2  1.63  0.00  0.00  0.00  0.00  0.00  0.00   2.0  0.00  0.00  0.00  0.00
 2023  48   169    86  12.8  -6.0 43.74 14.39  0.99  2.66 181.1  5.78 1.091  6.87  5970     9   775  5186  2479  2649     0  0.00     0     0   513    59 305.0 14.78  10.0     0     0  1610   233  1.22  0.87  97.4  39.1  1.65  0.00  0.00  0.00  0.00  0.00  0.00   2.0  0.00  0.00  0.00  0.00
 2023  49   170    87  17.4  -6.0 44.61 14.39  0.99  2.66 161.2  5.69 1.109  6.80  6122     9   787  5327  2461  2792     0  0.00     0     0   570    74 305.0 15.45  10.9     0     0  1564   231  1.21  0.87 103.8  43.2  8.01  0.00  0.00  0.00  0.00  0.00  0.00   2.0  0.00  0.00  0.00  0.00
 2023  50   171    88  18.8  -6.0 45.55 14.39  0.99  2.66 141.3  5.60 1.123  6.72  6256     9   797  5450  2442  2917     0  0.00     0     0   624    90 305.0 16.19  11.6     0     0  1515   229  1.21  0.87  90.5  41.7 10.39  0.00  0.00  0.00  0.00  0.00  0.00   2.0  0.00  0.00  0.00  0.00
 2023  51   172    89  18.3  -6.0 46.46 14.39  0.99  2.66 174.2  5.51 1.142  6.65  6421     9   809  5603  2425  3072     0  0.00     0     0   686   106 305.0 16.92  12.5     0     0  1470   227  1.21  0.88  84.3  31.7  8.82  0.00  0.00  0.00  0.00  0.00  0.00   2.0  0.00  0.00  0.00  0.00
 2023  52   173    90  16.3  -6.0 47.28 14.39  0.99  2.66 160.9  5.43 1.160  6.59  6573     9   820  5745  2410  3215     0  0.00     0     0   743   121 305.0 17.58  13.2     0     0  1431   225  1.21  0.88  82.3  35.4 10.23  0.00  0.00  0.00  0.00  0.00  0.00   2.0  0.00  0.00  0.00  0.00
 2023  53   174    91  15.3  -6.0 48.04 14.39  0.99  2.66 265.0  5.36 1.195  6.55  6826     9   837  5980  2395  3451     0  0.00     0     0   827   134 305.0 18.21  14.1     0     0  1396   224  1.21  0.89  78.5  20.9  6.42  0.00  0.00  0.00  0.00  0.00  0.00   2.0  0.00  0.00  0.00  0.00
 2023  54   175    92  16.1  -6.0 48.85 14.39  0.99  2.66 266.1  5.28 1.230  6.51  7079     9   854  6217  2378  3582     0  0.00   108   108   912   149 305.0 18.89  15.0     0     0  1360   222  1.21  0.89  74.5  19.1  5.84  0.00  0.00  0.00  0.00  0.00  0.00   2.0  0.00  0.00  0.00  0.00
 2023  55   176    93  13.1  -6.0 49.51 14.39  0.99  2.66 171.1  5.22 1.251  6.47  7243     9   865  6370  2366  3641     0  0.00   203   177   970   161 305.0 19.45  15.6     0     0  1332   220  1.21  0.89  72.1  30.7  7.73  0.00  0.00  0.00  0.00  0.00  0.00   2.0  0.00  0.00  0.00  0.00
 2023  56   177    94  15.6  -6.0 50.90 14.39  0.99  2.66 168.4  5.14 1.271  6.41  7404     9   874  6521  2349  3707     0  0.00   290   246  1030   175 305.0 20.13  16.2     0     0  1299   219  1.21  0.90  69.6  28.5  6.49  0.00  0.00  0.00  0.00  0.00  0.00   2.0  0.00  0.00  0.00  0.00
 2023  57   178    95  17.0  -6.0 53.50 14.39  0.99  2.66 273.4  5.08 1.303  6.38  7666     9   889  6768  2339  3821     0  0.00   423   359  1114   185 305.0 20.87  16.9     0     0  1264   217  1.21  0.90  65.4  16.2  3.34  0.00  0.00  0.00  0.00  0.00  0.00   2.0  0.00  0.00  0.00  0.00
 2023  58   179    96  16.0  -6.0 55.97 14.39  0.99  2.66 273.3  5.03 1.335  6.36  7929     9   902  7018  2330  3922     0  0.00   571   473  1198   194 305.0 21.58  17.6     0     0  1233   216  1.21  0.92  61.3  15.3  2.60  0.00  0.00  0.00  0.00  0.00  0.00   2.0  0.00  0.00  0.00  0.00
 2023  59   180    97  16.1  -6.0 58.44 14.39  0.99  2.66 241.6  4.97 1.364  6.33  8163     9   912  7242  2321  4008     0  0.00   709   574  1275   204 305.0 22.31  18.1     0     0  1203   214  1.21  0.93  57.7  16.2  2.27  0.00  0.00  0.00  0.00  0.00  0.00   2.0  0.00  0.00  0.00  0.00
 2023  60   181    98  12.6  -6.0 60.97 14.39  0.98  2.66  82.7  4.92 1.369  6.29  8243     9   915  7320  2315  4018     0  0.00   776   610  1306   211 305.0 22.88  18.4     0     0  1180   213  1.21  0.94  56.6  51.2  5.81  0.00  0.00  0.00  0.00  0.00  0.00   2.0  0.00  0.00  0.00  0.00
 2023  61   182    99  14.6  -6.0 66.61 14.39  0.98  2.66 283.2  4.87 1.406  6.28  8519     9   923  7588  2306  4148     0  0.00   914   732  1395   220 305.0 23.55  18.9     0     0  1153   211  1.21  0.95  52.6  13.3  1.51  0.00  0.00  0.00  0.00  0.00  0.00   2.0  0.00  0.00  0.00  0.00
 2023  62   183   100  14.9  -6.0 70.36 14.39  0.98  2.66 289.6  4.82 1.445  6.27  8803     9   930  7865  2297  4256     0  0.00  1083   858  1487   229 305.0 24.24  19.5     0     0  1128   210  1.21  0.96  48.3  11.7  1.13  0.00  0.00  0.13  0.00  0.00  0.00   2.0  0.00  0.00  0.00  0.00
 2023  63   184   101  14.5  -6.0 71.21 14.39  0.98  2.28 249.0  4.77 1.477  6.25  9047     9   936  8102  2289  4336     5  0.00  1235   971  1562   237 305.0 24.91  19.9 16341 .0000  1104   209  1.21  0.95  44.6  10.7  0.86  0.29  0.14  0.34  0.00  0.00  0.00   2.0  0.00  0.00  0.00  0.00
 2023  64   185   102  15.5  -6.0 72.13 14.39  0.98  1.74 192.4  4.72 1.499  6.22  9234     9   942  8284  2279  4381    25  0.00  1351  1073  1605   247 305.0 25.64  20.0 16341 .0002  1078   207  1.21  0.94  41.7   9.6  0.65  0.69  0.35  0.50  0.00  0.00  0.00   2.0  0.00  0.00  0.00  0.00
 2023  65   186   103  16.9  -6.0 73.13 14.39  0.98  1.47 156.4  4.57 1.489  6.06  9386     9   947  8431  2222  4435    65  0.01  1423  1113  1752   286 305.0 26.43  21.7 16341 .0004  1052   206  1.21  0.94  39.1   9.2  0.55  0.90  0.45  0.58  0.00  0.00  0.00   2.0  0.00  0.00  0.00  0.00
 2023  66   187   104  16.9  -6.0 74.13 14.39  0.98  1.62 134.4  4.51 1.478  5.99  9518     9   949  8560  2212  4484   123  0.01  1446  1171  1834   296 305.0 27.23  22.5 16341 .0008  1026   204  1.21  0.96  89.5  27.1  0.61  0.78  0.39  0.53  0.00  0.00  0.00   2.0  0.00  0.00  0.00  0.00
 2023  67   188   105  18.4  -6.0 75.22 14.39  0.98  2.66 257.9  4.45 1.467  5.92  9773     9   951  8813  2199  4601   206  0.02  1499  1254  2015   308 305.0 28.10  24.3 16341 .0013   999   203  1.21  0.98  85.4  21.5  4.41  0.00  0.00  0.00  0.00  0.00  0.00   2.0  0.00  0.00  0.00  0.00
 2023  68   189   106  19.7  -6.0 76.38 14.39  0.98  2.66 281.1  4.39 1.456  5.85 10051     9   954  9088  2186  4714   319  0.04  1549  1367  2189   320 305.0 29.04  25.9 16341 .0020   972   201  1.21  0.98  80.7  18.2  5.87  0.00  0.00  0.00  0.00  0.00  0.00   2.0  0.00  0.00  0.00  0.00
 2023  69   190   107  19.4  -6.0 77.53 14.39  0.97  2.66 292.4  4.33 1.444  5.77 10340     9   956  9375  2173  4818   455  0.05  1597  1503  2352   332 305.0 29.97  27.4 16341 .0028   945   199  1.21  0.98  75.9  16.5  5.87  0.00  0.00  0.00  0.00  0.00  0.00   2.0  0.00  0.00  0.00  0.00
 2023  70   191   108  19.6  -6.0 78.69 14.39  0.97  2.66 288.1  4.27 1.433  5.70 10625     9   959  9657  2160  4901   618  0.06  1635  1666  2484   344 305.0 30.91  28.6 16341 .0038   920   198  1.21  0.98  71.1  15.7  5.18  0.00  0.00  0.00  0.00  0.00  0.00   2.0  0.00  0.00  0.00  0.00
 2023  71   192   109  22.8  -6.0 80.01 14.39  0.97  2.66 286.4  4.19 1.421  5.62 10908     9   961  9938  2143  4945   835  0.08  1657  1883  2562   358 305.0 32.00  29.3 16341 .0051   892   196  1.21  0.98  66.1  13.8  3.57  0.00  0.00  0.00  0.00  0.00  0.00   2.0  0.00  0.18  0.00  0.00
 2023  72   193   110  22.0  -6.0 80.41 14.39  0.97  2.66 292.4  4.15 1.409  5.56 11197     9   964 10225  2142  4971  1081  0.11  1668  2129  2608   364 305.0 33.05  29.7 16341 .0066   865   194  1.21  0.98  61.1  12.8  2.53  0.00  0.00  0.00  0.00  0.00  0.00   2.0  0.00  0.13  0.00  0.00
 2023  73   194   111  19.8  -6.0 80.78 14.39  0.97  2.66 299.8  4.12 1.398  5.51 11493     9   966 10518  2141  5019  1302  0.12  1689  2350  2685   368 305.0 34.01  30.3 16341 .0080   843   192  1.21  0.98  56.1  11.9  1.84  0.00  0.00  0.00  0.00  0.00  0.00   2.0  0.00  0.00  0.00  0.00
 2023  74   195   112  19.5  -6.0 81.13 14.39  0.97  2.66 263.4  4.08 1.388  5.47 11754     9   969 10777  2139  5045  1519  0.14  1700  2567  2731   373 305.0 34.95  30.7 16341 .0093   822   191  1.21  0.98  51.7  12.5  1.52  0.00  0.00  0.00  0.00  0.00  0.00   2.0  0.00  0.00  0.00  0.00
 2023  75   196   113  20.5  -6.0 81.50 14.39  0.97  2.66 241.3  4.04 1.377  5.42 11992     9   970 11013  2137  5048  1748  0.16  1702  2796  2744   378 305.0 35.94  30.9 16341 .0107   800   189  1.21  0.98  47.7  12.5  1.24  0.00  0.00  0.04  0.00  0.00  0.00   2.0  0.00  0.03  0.00  0.00
 2023  76   197   114  20.0  -6.0 81.87 14.39  0.97  2.66 103.1  4.01 1.367  5.38 12093     9   971 11114  2135  4959  1972  0.18  1664  3020  2626   383 305.0 36.91  30.0 16341 .0121   780   188  1.21  0.98 100.8  63.4  2.30  0.00  0.00  0.00  0.00  0.00  0.00   2.0  0.00  0.00  0.00  0.00
 2023  77   198   115  19.0  -6.0 82.22 14.39  0.97  2.66 280.7  3.98 1.358  5.33 12371     9   973 11389  2134  5000  2185  0.19  1682  3233  2693   388 305.0 37.84  30.5 16341 .0134   762   186  1.20  0.98 117.2  27.3  5.13  0.00  0.00  0.00  0.00  0.00  0.00   2.0  0.00  0.00  0.00  0.00
 2023  78   199   116  19.0  -6.0 82.57 14.39  0.96  2.66 294.5  3.94 1.349  5.29 12662     9   976 11678  2132  5051  2397  0.21  1705  3445  2774   393 305.0 38.76  31.2 16341 .0147   744   185  1.20  0.98 100.0  22.1  6.14  0.00  0.00  0.00  0.00  0.00  0.00   2.0  0.00  0.00  0.00  0.00
 2023  79   200   117  19.0  -6.0 82.91 14.39  0.96  2.66 291.7  3.91 1.340  5.25 12950     9   978 11964  2129  5100  2610  0.22  1726  3658  2851   398 305.0 39.69  31.8 16341 .0160   727   184  1.20  0.98  85.5  19.2  5.95  0.00  0.00  0.00  0.00  0.00  0.00   2.0  0.00  0.00  0.00  0.00
 2023  80   201   118  20.1  -6.0 83.28 14.39  0.96  2.66 288.8  3.88 1.331  5.21 13236     9   981 12247  2127  5139  2834  0.23  1743  3883  2915   403 305.0 40.68  32.4 16341 .0173   710   182  1.20  0.98  80.3  18.0  6.45  0.00  0.00  0.00  0.00  0.00  0.00   2.0  0.00  0.01  0.00  0.00
 2023  81   202   119  20.2  -6.0 83.65 14.39  0.96  2.66 288.5  3.84 1.321  5.16 13521     9   983 12529  2124  5177  3061  0.24  1759  4109  2977   408 305.0 41.67  32.9 16341 .0187   693   181  1.20  0.98  75.5  16.5  5.98  0.00  0.00  0.00  0.00  0.00  0.00   2.0  0.00  0.02  0.00  0.00
 2023  82   203   120  19.6  -6.0 84.01 14.39  0.96  2.66 299.7  3.81 1.313  5.12 13817     9   986 12823  2122  5227  3280  0.26  1781  4328  3057   413 305.0 42.63  33.5 16341 .0201   678   180  1.20  0.98  70.5  15.2  5.05  0.00  0.00  0.00  0.00  0.00  0.00   2.0  0.00  0.00  0.00  0.00
 2023  83   204   121  17.6  -6.0 84.33 14.39  0.95  2.66 319.8  3.60 1.305  4.91 14134     9   989 13137  2019  5320  3476  0.26  1842  4524  3239   479 305.0 43.50  35.3 16341 .0213   665   178  1.20  0.98  65.4  13.7  3.60  0.00  0.00  0.00  0.00  0.00  0.00   2.0  0.00  0.00  0.00  0.00
 2023  84   205   122  17.1  -6.0 84.64 14.39  0.94  2.66 304.6  3.41 1.298  4.71 14435     9   992 13435  1926  5406  3667  0.27  1899  4715  3406   538 305.0 44.35  36.9 16341 .0224   652   177  1.20  0.98  60.6  13.5  2.80  0.00  0.00  0.00  0.00  0.00  0.00   2.0  0.00  0.00  0.00  0.00
 2023  85   206   123  17.5  -6.0 84.96 14.39  0.94  2.66 304.5  3.23 1.290  4.52 14736     9   994 13733  1835  5488  3862  0.28  1953  4911  3566   595 305.0 45.21  38.5 16341 .0236   640   176  1.20  0.98  55.6  12.3  2.02  0.00  0.00  0.00  0.00  0.00  0.00   2.0  0.00  0.00  0.00  0.00
 2023  86   207   124  17.5  -6.0 85.28 14.39  0.92  2.66 234.3  3.04 1.283  4.33 14968     9   996 13963  1740  5523  4058  0.29  1987  5107  3659   655 305.0 46.09  39.6 16341 .0248   628   175  1.20  0.98  87.6  25.2  1.92  0.00  0.00  0.00  0.00  0.00  0.00   2.0  0.00  0.00  0.00  0.00
 2023  87   208   125  18.8  -6.0 85.62 14.39  0.91  2.66 278.3  2.86 1.276  4.13 15243     9   999 14236  1644  5578  4268  0.30  2031  5316  3782   714 305.0 47.02  40.9 16341 .0261   616   174  1.20  0.98  82.8  19.5  6.17  0.00  0.00  0.00  0.00  0.00  0.00   2.0  0.00  0.00  0.00  0.00
 2023  88   209   126  18.0  -6.0 85.95 14.39  0.90  2.66 284.1  2.66 1.268  3.93 15524     9  1001 14514  1541  5645  4469  0.31  2081  5517  3924   778 305.0 47.92  42.3 16341 .0273   604   173  1.20  0.98  77.9  18.3  6.90  0.00  0.00  0.00  0.00  0.00  0.00   2.0  0.00  0.00  0.00  0.00
 2023  89   210   127  19.3  -6.0 86.30 14.39  0.88  2.66 275.5  2.47 1.261  3.73 15796     9  1004 14784  1441  5695  4684  0.32  2124  5733  4040   840 305.0 48.89  43.6 16341 .0287   592   171  1.20  0.98  73.0  17.4  6.41  0.00  0.00  0.00  0.00  0.00  0.00   2.0  0.00  0.00  0.00  0.00
[...]
 2023  37   158    65  16.7  -6.0 33.17 12.10  0.65  0.64  33.7  1.23 0.170  1.40  1038    15   213   809   467   342     0  0.00     0     0    80     0 216.1 3.595   9.8     0     0   702   264  1.05  0.75  45.5  23.6  0.30  1.00  0.70  0.77  0.00  0.00  0.00   2.0  0.00  0.00  0.00  0.00
 2023  38   159    66  16.2  -6.0 33.94 12.28  0.65  0.58  33.7  1.25 0.174  1.42  1060    15   218   826   475   351     0  0.00     0     0    82     0 224.1 3.768   9.9     0     0   702   263  1.07  0.75  45.9  22.1  0.27  1.00  0.73  0.79  0.00  0.00  0.00   2.0  0.00  0.00  0.00  0.00
 2023  39   160    67  18.1  -6.0 34.81 12.48  0.66  0.53  31.6  1.26 0.177  1.44  1080    15   223   842   482   360     0  0.00     0     0    85     0 232.3 3.966  10.0     0     0   702   261  1.08  0.75  46.5  20.5  0.25  1.00  0.75  0.81  0.00  0.00  0.00   2.0  0.00  0.00  0.00  0.00
 2023  40   161    68  15.1  -6.0 35.53 12.64  0.66  0.54  32.9  1.27 0.180  1.45  1102    15   227   859   489   370     0  0.00     0     0    87     0 240.3 4.134  10.1     0     0   702   260  1.09  0.76  46.9  21.5  0.25  1.00  0.75  0.80  0.00  0.00  0.00   2.0  0.00  0.00  0.00  0.00
 2023  41   162    69  17.1  -6.0 36.34 12.83  0.66  0.58  31.1  1.28 0.184  1.46  1121    15   232   874   495   379     0  0.00     0     0    89     0 248.6 4.329  10.2     0     0   702   259  1.11  0.76  47.4  23.6  0.27  1.00  0.73  0.79  0.00  0.00  0.00   2.0  0.00  0.00  0.00  0.00
 2023  42   163    70  14.0  -6.0 37.01 12.98  0.67  1.71  33.4  1.32 0.191  1.51  1151    15   235   900   513   387     0  0.00     0     0    85     0 249.9 4.491   9.4     0     0   702   257  1.12  0.82  47.7  71.1  0.80  0.40  0.20  0.38  0.00  0.00  0.00   2.0  0.00  0.00  0.00  0.00
 2023  43   164    71  15.7  -6.0 37.76 13.16  0.68  0.56  31.4  1.33 0.194  1.52  1171    15   239   916   518   398     0  0.00     0     0    88     0 258.4 4.676   9.6     0     0   702   256  1.13  0.77  48.1  24.1  0.26  1.00  0.74  0.80  0.00  0.00  0.00   2.0  0.00  0.00  0.00  0.00
 2023  44   165    72  13.9  -6.0 38.42 13.31  0.68  0.86  32.6  1.33 0.197  1.53  1192    15   244   933   524   409     0  0.00     0     0    91     0 266.7 4.842   9.8     0     0   691   254  1.14  0.78  48.5  37.6  0.40  1.00  0.60  0.69  0.00  0.00  0.00   2.0  0.00  0.00  0.00  0.00
 2023  45   166    73  13.7  -6.0 39.07 13.46  0.68  0.56  31.9  1.33 0.200  1.53  1212    15   248   949   529   420     0  0.00     0     0    94     0 275.1 5.009   9.9     0     0   680   252  1.16  0.77  48.8  25.1  0.26  1.00  0.74  0.80  0.00  0.00  0.00   2.0  0.00  0.00  0.00  0.00
 2023  46   167    74  14.2  -6.0 39.74 13.61  0.68  0.54  31.6  1.34 0.204  1.54  1232    15   252   965   534   431     0  0.00     0     0    96     0 283.5 5.184  10.0     0     0   670   250  1.17  0.77  50.1  25.0  0.25  1.00  0.75  0.80  0.00  0.00  0.00   2.0  0.00  0.00  0.00  0.00
 2023  47   168    75  14.1  -6.0 40.44 13.77  0.68  0.50  32.5  1.34 0.207  1.54  1253    15   256   982   539   443     0  0.00     0     0    99     0 292.1 5.362  10.1     0     0   659   248  1.18  0.77  49.5  22.2  0.24  1.00  0.76  0.82  0.00  0.00  0.00   2.0  0.00  0.00  0.00  0.00
 2023  48   169    76  12.8  -6.0 41.08 13.77  0.67  0.84  39.3  1.30 0.208  1.51  1289    15   261  1012   526   477     0  0.00     0     0   118     9 292.1 5.526  11.7     0     0   650   247  1.19  0.78  49.8  31.5  0.32  1.00  0.68  0.76  0.00  0.00  0.00   2.0  0.00  0.00  0.00  0.00
 2023  49   170    77  17.4  -6.0 41.95 13.77  0.66  0.89  36.3  1.26 0.208  1.46  1322    15   265  1041   512   510     0  0.00     0     0   137    20 292.1 5.754  13.4     0     0   638   246  1.20  0.79  56.0  37.5  0.33  1.00  0.67  0.74  0.00  0.00  0.00   2.0  0.00  0.00  0.00  0.00
 2023  50   171    78  18.8  -6.0 42.89 13.77  0.65  2.66  93.5  1.24 0.221  1.46  1410    15   273  1121   508   590     0  0.00     0     0   164    23 292.1 6.003  14.9     0     0   626   244  1.20  0.86  53.8  40.1  1.04  0.00  0.00  0.20  0.00  0.00  0.00   2.0  0.00  0.00  0.00  0.00
 2023  51   172    79  18.3  -6.0 43.80 13.77  0.64  1.21  51.8  1.20 0.223  1.42  1457    15   279  1163   494   636     0  0.00     0     0   187    33 292.1 6.253  16.5     0     0   614   242  1.20  0.81  51.9  32.0  0.45  1.00  0.55  0.65  0.00  0.00  0.00   2.0  0.00  0.00  0.00  0.00
 2023  52   173    80  16.3  -6.0 44.62 13.77  0.63  1.26  48.9  1.16 0.226  1.38  1503    15   284  1203   481   679     0  0.00     0     0   208    43 292.1 6.480  17.9     0     0   604   241  1.20  0.82  50.8  36.6  0.47  1.00  0.53  0.64  0.00  0.00  0.00   2.0  0.00  0.00  0.00  0.00
 2023  53   174    81  15.3  -6.0 45.39 13.77  0.61  0.75  47.4  1.12 0.228  1.35  1546    15   289  1241   469   721     0  0.00     0     0   229    52 292.1 6.698  19.2     0     0   595   239  1.20  0.80  50.2  22.8  0.28  1.00  0.72  0.78  0.00  0.00  0.00   2.0  0.00  0.00  0.00  0.00
 2023  54   175    82  16.1  -6.0 46.19 13.77  0.60  0.72  44.6  1.08 0.231  1.32  1587    15   294  1277   456   760     0  0.00     0     0   249    61 292.1 6.932  20.4     0     0   585   238  1.20  0.80  49.5  22.2  0.27  1.00  0.73  0.79  0.00  0.00  0.00   2.0  0.00  0.00  0.00  0.00
 2023  55   176    83  13.1  -6.0 46.85 13.77  0.59  1.19  46.4  1.05 0.233  1.29  1630    15   299  1315   444   802     0  0.00     0     0   268    69 292.1 7.125  21.5     0     0   578   237  1.20  0.83  48.9  37.2  0.45  1.00  0.55  0.66  0.00  0.00  0.00   2.0  0.00  0.00  0.00  0.00
 2023  56   177    84  15.6  -6.0 47.63 13.77  0.58  1.14  42.9  1.02 0.236  1.25  1669    15   303  1351   432   841     0  0.00     0     0   288    78 292.1 7.359  22.6     0     0   569   236  1.20  0.83  48.3  36.1  0.43  1.00  0.57  0.67  0.00  0.00  0.00   2.0  0.00  0.00  0.00  0.00
 2023  57   178    85  17.0  -6.0 48.48 13.77  0.57  0.68  41.0  0.98 0.237  1.22  1707    15   308  1384   419   878     0  0.00     0     0   307    87 292.1 7.616  23.6     0     0   560   234  1.20  0.81  47.7  21.9  0.26  1.00  0.74  0.80  0.00  0.00  0.00   2.0  0.00  0.00  0.00  0.00
 2023  58   179    86  16.0  -6.0 49.28 13.77  0.55  0.69  40.6  0.95 0.239  1.19  1745    15   312  1418   407   900     0  0.00    15    15   325    95 292.1 7.862  24.6     0     0   552   233  1.20  0.82  47.1  22.4  0.26  1.00  0.74  0.80  0.00  0.00  0.00   2.0  0.00  0.00  0.00  0.00
 2023  59   180    87  16.1  -6.0 50.27 13.77  0.54  0.78  39.6  0.92 0.241  1.16  1781    15   316  1450   395   913     0  0.00    38    30   343   103 292.1 8.113  25.5     0     0   544   232  1.20  0.83  46.5  25.4  0.29  1.00  0.71  0.78  0.00  0.00  0.00   2.0  0.00  0.00  0.00  0.00
 2023  60   181    88  12.6  -6.0 52.21 13.77  0.54  2.51  42.7  0.91 0.246  1.16  1822    15   318  1488   394   926     0  0.00    63    47   356   105 292.1 8.313  25.7     0     0   538   231  1.20  0.90  46.0  82.7  0.94  0.12  0.06  0.28  0.00  0.00  0.00   2.0  0.00  0.00  0.00  0.00
 2023  61   182    89  14.6  -6.0 54.47 13.77  0.53  0.69  39.9  0.88 0.250  1.13  1859    15   322  1522   385   937     0  0.00    88    63   372   111 292.1 8.546  26.4     0     0   531   230  1.20  0.84  45.4  22.9  0.26  1.00  0.74  0.80  0.00  0.00  0.00   2.0  0.00  0.00  0.00  0.00
 2023  62   183    90  14.9  -6.0 56.76 13.77  0.52  0.66  38.4  0.86 0.254  1.11  1895    15   325  1554   376   949     0  0.00   112    77   389   118 292.1 8.786  27.1     0     0   524   228  1.20  0.84  44.9  22.2  0.25  1.00  0.75  0.81  0.00  0.00  0.00   2.0  0.00  0.00  0.00  0.00
 2023  63   184    91  14.5  -6.0 58.98 13.77  0.51  0.65  37.4  0.83 0.258  1.09  1930    15   328  1586   367   960     0  0.00   135    92   404   124 292.1 9.021  27.7     0     0   518   227  1.20  0.85  44.4  22.1  0.24  1.00  0.76  0.81  0.00  0.00  0.00   2.0  0.00  0.00  0.00  0.00
 2023  64   185    92  15.5  -6.0 63.42 13.77  0.50  0.63  35.7  0.81 0.262  1.07  1963    15   331  1617   358   971     0  0.00   158   106   420   130 292.1 9.275  28.2     0     0   511   226  1.20  0.86  43.9  21.5  0.23  1.00  0.77  0.82  0.00  0.00  0.00   2.0  0.00  0.00  0.00  0.00
 2023  65   186    93  16.9  -6.0 69.92 13.77  0.49  0.63  34.2  0.79 0.265  1.05  1995    15   333  1647   349   981     0  0.00   180   120   435   137 292.1 9.555  28.8     0     0   504   225  1.20  0.87  43.4  22.0  0.24  1.00  0.76  0.82  0.00  0.00  0.00   2.0  0.00  0.00  0.00  0.00
 2023  66   187    94  16.9  -6.0 70.98 13.77  0.48  0.81  33.5  0.76 0.269  1.03  2027    15   335  1677   340   992     0  0.00   202   133   450   143 292.1 9.835  29.4     0     0   497   224  1.20  0.89  42.9  28.5  0.31  1.00  0.69  0.76  0.00  0.00  0.00   2.0  0.00  0.00  0.00  0.00
 2023  67   188    95  18.4  -6.0 72.07 13.77  0.47  0.67  31.9  0.74 0.272  1.01  2057    15   337  1706   331   998     4  0.00   223   150   461   149 292.1 10.14  29.7  3467 .0001   490   223  1.20  0.90  42.4  24.0  0.25  1.00  0.75  0.81  0.00  0.00  0.00   2.0  0.00  0.00  0.00  0.00
 2023  68   189    96  19.7  -6.0 73.24 13.77  0.46  0.60  30.3  0.71 0.270  0.98  2086    15   338  1733   323  1005    14  0.01   236   160   485   155 292.1 10.47  31.0  3467 .0004   482   221  1.20  0.91  42.0  21.7  0.23  1.00  0.77  0.83  0.00  0.00  0.00   2.0  0.00  0.00  0.00  0.00
 2023  69   190    97  19.4  -6.0 74.39 13.77  0.44  0.58  29.7  0.69 0.268  0.96  2115    15   339  1761   314  1016    29  0.02   240   175   504   161 292.1 10.80  32.1  3467 .0008   475   220  1.20  0.92  41.5  21.2  0.22  1.00  0.78  0.83  0.00  0.00  0.00   2.0  0.00  0.00  0.00  0.00
 2023  70   191    98  19.6  -6.0 75.55 13.77  0.43  0.59  28.9  0.67 0.266  0.93  2143    15   340  1788   305  1022    49  0.03   243   195   516   167 292.1 11.14  32.8  3467 .0014   468   219  1.20  0.94  41.1  21.7  0.22  1.00  0.78  0.83  0.00  0.00  0.00   2.0  0.00  0.00  0.00  0.00
 2023  71   192    99  22.8  -6.0 76.90 13.77  0.42  0.56  26.6  0.64 0.264  0.91  2168    15   340  1813   297  1020    79  0.04   244   225   518   173 292.1 11.52  33.2  3467 .0023   461   217  1.20  0.95  40.7  20.9  0.21  1.00  0.79  0.84  0.00  0.00  0.00   2.0  0.00  0.18  0.00  0.00
 2023  72   193   100  22.0  -6.0 78.20 13.77  0.41  0.55  26.4  0.62 0.262  0.88  2194    15   340  1838   288  1013   115  0.06   243   261   513   179 292.1 11.90  33.2  3467 .0033   453   216  1.20  0.96  40.3  21.2  0.21  1.00  0.79  0.84  0.00  0.00  0.00   2.0  0.00  0.13  0.00  0.00
 2023  73   194   101  19.8  -6.0 79.37 13.77  0.40  0.56  26.6  0.60 0.260  0.86  2220    15   340  1864   280  1004   153  0.08   242   300   506   185 292.1 12.23  33.2  3467 .0044   447   215  1.20  0.98  39.9  21.8  0.21  1.00  0.79  0.84  0.00  0.00  0.00   2.0  0.00  0.00  0.00  0.00
 2023  74   195   102  19.5  -6.0 80.15 13.77  0.39  0.64  26.1  0.58 0.258  0.84  2246    15   340  1890   272   992   197  0.10   239   343   494   190 292.1 12.56  32.9  3467 .0057   441   213  1.20  0.98  39.5  25.4  0.24  1.00  0.76  0.81  0.00  0.00  0.00   2.0  0.00  0.00  0.00  0.00
 2023  75   196   103  20.5  -6.0 80.51 13.77  0.38  0.69  25.2  0.57 0.256  0.82  2270    15   340  1915   266   973   246  0.13   235   392   474   194 292.1 12.91  32.1  3467 .0071   435   212  1.20  0.98  39.1  27.9  0.26  1.00  0.74  0.80  0.00  0.00  0.00   2.0  0.00  0.03  0.00  0.00
 2023  76   197   104  20.0  -6.0 80.87 13.77  0.38  1.65  25.2  0.56 0.254  0.82  2295    15   340  1939   266   954   294  0.15   230   440   451   195 292.1 13.25  31.1  3467 .0085   429   211  1.20  0.98  49.9  87.0  0.62  0.76  0.38  0.52  0.00  0.00  0.00   2.0  0.00  0.00  0.00  0.00
 2023  77   198   105  19.0  -6.0 81.20 13.77  0.38  2.66 110.2  0.56 0.253  0.81  2404    15   341  2047   266  1002   340  0.17   243   486   513   195 292.1 13.58  34.0  3467 .0098   424   210  1.20  0.98  75.8  47.9  2.03  0.00  0.00  0.00  0.00  0.00  0.00   2.0  0.00  0.00  0.00  0.00
 2023  78   199   106  19.0  -6.0 81.54 13.77  0.38  2.66 115.2  0.55 0.251  0.81  2518    15   342  2160   266  1054   386  0.18   258   532   581   196 292.1 13.90  36.8  3467 .0111   419   209  1.20  0.98  71.5  43.3  4.72  0.00  0.00  0.00  0.00  0.00  0.00   2.0  0.00  0.00  0.00  0.00
 2023  79   200   107  19.0  -6.0 81.87 13.77  0.37  2.66 113.7  0.55 0.249  0.80  2630    15   343  2272   266  1105   432  0.19   272   578   647   197 292.1 14.23  39.4  3467 .0125   415   208  1.20  0.98  69.8  43.5  5.10  0.00  0.00  0.00  0.00  0.00  0.00   2.0  0.00  0.00  0.00  0.00
 2023  80   201   108  20.1  -6.0 82.23 13.77  0.37  2.66 112.2  0.55 0.248  0.80  2741    15   344  2382   265  1153   480  0.20   285   627   709   197 292.1 14.57  41.6  3467 .0139   410   207  1.20  0.98  68.1  42.9  4.86  0.00  0.00  0.00  0.00  0.00  0.00   2.0  0.00  0.01  0.00  0.00
 2023  81   202   109  20.2  -6.0 82.58 13.77  0.37  2.66 111.6  0.55 0.246  0.79  2852    15   345  2491   265  1200   529  0.21   299   675   770   198 292.1 14.92  43.7  3467 .0153   405   206  1.20  0.98  66.3  41.0  3.74  0.00  0.00  0.00  0.00  0.00  0.00   2.0  0.00  0.02  0.00  0.00
 2023  82   203   110  19.6  -6.0 82.93 13.77  0.37  2.66 115.5  0.54 0.245  0.79  2966    15   346  2604   265  1251   577  0.22   313   723   837   198 292.1 15.26  45.7  3467 .0166   401   205  1.20  0.98  64.6  39.4  3.03  0.00  0.00  0.00  0.00  0.00  0.00   2.0  0.00  0.00  0.00  0.00
 2023  83   204   111  17.6  -6.0 83.24 13.77  0.37  2.66 122.9  0.54 0.243  0.78  3087    15   348  2725   265  1312   619  0.23   330   765   915   199 292.1 15.57  48.0  3467 .0178   397   204  1.20  0.98  62.8  37.4  2.53  0.00  0.00  0.00  0.00  0.00  0.00   2.0  0.00  0.00  0.00  0.00
 2023  84   205   112  17.1  -6.0 83.54 13.77  0.37  2.66 117.5  0.54 0.242  0.78  3204    15   349  2840   264  1370   660  0.23   346   806   990   200 292.1 15.86  50.0  3467 .0190   394   203  1.20  0.98  61.1  38.5  2.29  0.00  0.00  0.00  0.00  0.00  0.00   2.0  0.00  0.00  0.00  0.00
 2023  85   206   113  17.5  -6.0 83.84 13.77  0.36  2.66 118.0  0.53 0.241  0.77  3320    15   350  2955   264  1427   702  0.24   362   849  1064   200 292.1 16.17  51.8  3467 .0203   390   202  1.20  0.98  59.4  36.6  1.83  0.00  0.00  0.00  0.00  0.00  0.00   2.0  0.00  0.00  0.00  0.00
 2023  86   207   114  17.5  -6.0 84.15 13.77  0.36  2.66  91.3  0.53 0.239  0.77  3411    15   351  3045   264  1463   745  0.24   372   891  1112   201 292.1 16.48  52.9  3467 .0215   387   201  1.20  0.98  58.1  46.3  1.95  0.00  0.00  0.00  0.00  0.00  0.00   2.0  0.00  0.00  0.00  0.00
 2023  87   208   115  18.8  -6.0 84.48 13.77  0.35  2.66 109.3  0.51 0.238  0.74  3519    15   352  3152   253  1514   790  0.25   388   936  1180   208 292.1 16.80  54.8  3467 .0228   383   200  1.20  0.98  56.5  36.6  1.37  0.00  0.00  0.00  0.00  0.00  0.00   2.0  0.00  0.00  0.00  0.00
 2023  88   209   116  18.0  -6.0 84.80 13.77  0.34  2.66 109.0  0.48 0.237  0.72  3627    15   353  3259   241  1566   833  0.26   404   979  1251   215 292.1 17.12  56.6  3467 .0240   380   199  1.20  0.98  54.9  36.1  1.18  0.00  0.00  0.09  0.00  0.00  0.00   2.0  0.00  0.00  0.00  0.00
 2023  89   210   117  19.3  -6.0 85.14 13.77  0.32  2.66 103.2  0.46 0.235  0.69  3729    15   353  3360   230  1610   880  0.26   418  1026  1313   222 292.1 17.46  58.2  3467 .0254   377   199  1.20  0.98  53.4  36.3  1.05  0.00  0.00  0.20  0.00  0.00  0.00   2.0  0.00  0.00  0.00  0.00
 2023  90   211   118  18.7  -6.0 85.47 13.77  0.31  2.32  95.2  0.43 0.234  0.66  3823    15   354  3453   217  1650   925  0.27   431  1071  1369   230 292.1 17.79  59.6  3467 .0267   374   198  1.20  0.98  52.0  34.1  0.87  0.25  0.13  0.33  0.00  0.00  0.00   2.0  0.00  0.00  0.00  0.00
 2023  91   212   119  19.4  -6.0 85.81 13.77  0.29  2.17  82.3  0.40 0.233  0.64  3904    15   355  3534   205  1679   971  0.27   441  1118  1411   238 292.1 18.13  60.7  3467 .0280   371   197  1.20  0.98  50.8  35.2  0.81  0.37  0.19  0.37  0.00  0.00  0.00   2.0  0.00  0.00  0.00  0.00
 2023  92   213   120  20.8  -6.0 86.17 13.77  0.27  2.05  72.1  0.38 0.231  0.61  3975    15   355  3605   193  1698  1022  0.28   447  1168  1439   245 292.1 18.50  61.6  3467 .0295   368   196  1.20  0.98  49.7  36.2  0.77  0.46  0.23  0.41  0.00  0.00  0.00   2.0  0.00  0.06  0.00  0.00
 2023  93   214   121  18.6  -6.0 86.50 13.77  0.26  2.15  68.3  0.35 0.230  0.58  4043    15   356  3672   179  1717  1067  0.29   455  1213  1470   254 292.1 18.84  62.5  3467 .0308   365   195  1.20  0.98  48.7  40.9  0.81  0.38  0.19  0.38  0.00  0.00  0.00   2.0  0.00  0.00  0.00  0.00
 2023  94   215   122  17.1  -6.0 86.80 13.77  0.24  2.02  65.9  0.32 0.229  0.55  4108    15   356  3736   167  1738  1108  0.30   462  1254  1500   261 292.1 19.14  63.4  3467 .0319   363   194  1.20  0.98  47.8  41.0  0.76  0.48  0.24  0.42  0.00  0.00  0.00   2.0  0.00  0.00  0.00  0.00
 2023  95   216   123  15.9  -6.0 87.08 13.77  0.23  2.09  62.7  0.30 0.228  0.53  4170    15   357  3798   155  1759  1146  0.30   470  1292  1531   268 292.1 19.42  64.2  3467 .0330   361   194  1.20  0.98  46.9  44.7  0.78  0.43  0.22  0.40  0.00  0.00  0.00   2.0  0.00  0.00  0.00  0.00
 2023  96   217   124  15.9  -6.0 87.36 13.77  0.21  1.96  57.8  0.28 0.227  0.51  4227    15   357  3854   145  1775  1184  0.31   476  1330  1556   275 292.1 19.71  64.9  3467 .0341   359   193  1.20  0.98  46.1  44.2  0.73  0.53  0.27  0.43  0.00  0.00  0.00   2.0  0.00  0.00  0.00  0.00
 2023  97   218   125  17.3  -6.0 87.66 13.77  0.20  1.91  52.7  0.26 0.226  0.48  4279    15   358  3906   134  1785  1225  0.31   480  1372  1572   281 292.1 20.01  65.5  3467 .0353   356   192  1.20  0.98  45.4  45.1  0.72  0.57  0.28  0.45  0.00  0.00  0.00   2.0  0.00  0.00  0.00  0.00
 2023  98   219   126  19.2  -6.0 88.00 13.77  0.18  1.83  47.7  0.23 0.225  0.46  4326    15   358  3953   122  1788  1272  0.32   482  1418  1580   288 292.1 20.36  66.0  3467 .0367   354   191  1.20  0.98  44.7  45.3  0.69  0.62  0.31  0.47  0.00  0.00  0.00   2.0  0.00  0.00  0.00  0.00
 2023  99   220   127  20.0  -6.0 88.35 13.77  0.16  1.85  44.5  0.21 0.223  0.43  4370    15   358  3996   109  1782  1320  0.33   486  1466  1583   300 292.1 20.72  66.6  3467 .0381   351   191  1.20  0.98  44.0  47.4  0.69  0.61  0.31  0.47  0.00  0.00  0.00   2.0  0.00  0.00  0.00  0.00
 2023 100   221   128  19.5  -6.0 88.69 13.77  0.14  2.12  42.6  0.18 0.221  0.40  4412    15   358  4038    95  1776  1367  0.34   489  1513  1586   311 292.1 21.06  67.2  3467 .0394   349   190  1.20  0.98  43.4  56.5  0.80  0.41  0.20  0.39  0.00  0.00  0.00   2.0  0.00  0.00  0.00  0.00
 2023 101   222   129  21.5  -6.0 89.07 13.77  0.12  2.14  39.2  0.16 0.219  0.37  4450    15   358  4077    82  1762  1419  0.35   491  1565  1581   323 292.1 21.45  67.7  3467 .0409   347   189  1.20  0.98  42.8  59.0  0.80  0.39  0.20  0.38  0.00  0.00  0.00   2.0  0.00  0.10  0.00  0.00
 2023 102   223   130  20.7  -6.0 89.44 13.77  0.10  2.44  38.4  0.13 0.217  0.34  4488    15   358  4114    67  1750  1469  0.36   493  1615  1577   335 292.1 21.82  68.3  3467 .0424   344   188  1.20  0.98  42.2  69.5  0.92  0.17  0.08  0.30  0.00  0.00  0.00   2.0  0.00  0.04  0.00  0.00
 2023 103   224   131  20.1  -6.0 89.79 13.77  0.08  2.66  29.1  0.10 0.215  0.31  4516    15   358  4143    53  1733  1517  0.37   493  1663  1566   347 292.1 22.18  68.7  3467 .0438   342   187  1.20  0.98  41.8  99.9  1.30  0.00  0.00  0.00  0.00  0.00  0.00   2.0  0.00  0.01  0.00  0.00
 2023 104   225   132  20.2  -6.0 90.41 13.77  0.06  2.66  26.8  0.07 0.213  0.28  4543    15   358  4169    38  1728  1546  0.37   497  1693  1571   359 292.1 22.54  69.4  3467 .0446   340   187  1.20  0.98  41.4  99.9  1.36  0.00  0.00  0.00  0.00  0.00  0.00   2.0  0.00  0.01  0.00  0.00
